version 2
run General-234-20140502-01:29:51-9112
attr D costprob0.05
attr F nrr
attr R lru
attr a 1
attr configname General
attr csize 1e3
attr ctlg 1e5
attr datetime 20140502-01:29:51
attr experiment General
attr inifile omnetpp.ini
attr iterationvars "$net=three_caches_scenario_3_links, $rep=1, $priceratiovalue=2, $weights=0.7_0.15_0.15, $a=1, $ctlg=1e5, $F=nrr, $ttl=1000, $D=costprob0.05, $xi=1, $R=lru, $csize=1e3"
attr iterationvars2 "$net=three_caches_scenario_3_links, $rep=1, $priceratiovalue=2, $weights=0.7_0.15_0.15, $a=1, $ctlg=1e5, $F=nrr, $ttl=1000, $D=costprob0.05, $xi=1, $R=lru, $csize=1e3, $repetition=0"
attr measurement "$net=three_caches_scenario_3_links, $rep=1, $priceratiovalue=2, $weights=0.7_0.15_0.15, $a=1, $ctlg=1e5, $F=nrr, $ttl=1000, $D=costprob0.05, $xi=1, $R=lru, $csize=1e3"
attr net three_caches_scenario_3_links
attr network networks.${net=three_caches_scenario_3_links}_network
attr priceratiovalue 2
attr processid 9112
attr rep 1
attr repetition 0
attr replication #0
attr resultdir results
attr runnumber 234
attr seedset 1
attr ttl 1000
attr weights 0.7_0.15_0.15
attr xi 1

scalar . 	a 	1
scalar . 	csize 	1e3
scalar . 	ctlg 	1e5
scalar . 	priceratiovalue 	2
scalar . 	rep 	1
scalar . 	ttl 	1000
scalar . 	xi 	1
scalar three_caches_scenario_3_links_network.content_distribution 	repo-0 	4
scalar three_caches_scenario_3_links_network.content_distribution 	repo-1 	5
scalar three_caches_scenario_3_links_network.content_distribution 	repo-2 	6
scalar three_caches_scenario_3_links_network.content_distribution 	client-0 	0
scalar three_caches_scenario_3_links_network.content_distribution 	repo-0_card 	70018
scalar three_caches_scenario_3_links_network.content_distribution 	repo-1_card 	15023
scalar three_caches_scenario_3_links_network.content_distribution 	repo-2_card 	14959
scalar three_caches_scenario_3_links_network.statistics 	p_hit 	0.056338983727265
scalar three_caches_scenario_3_links_network.statistics 	interests 	71592.142857143
scalar three_caches_scenario_3_links_network.statistics 	data 	45891.714285714
scalar three_caches_scenario_3_links_network.statistics 	hdistance 	1.8925309750254
scalar three_caches_scenario_3_links_network.statistics 	avg_time 	0
scalar three_caches_scenario_3_links_network.statistics 	downloads 	179903
scalar three_caches_scenario_3_links_network.statistics 	total_cost 	28697
scalar three_caches_scenario_3_links_network.statistics 	total_replicas 	100000
scalar three_caches_scenario_3_links_network.statistics 	interests_sent 	179903
scalar three_caches_scenario_3_links_network.node[0].core_layer 	interests[0] 	179903
scalar three_caches_scenario_3_links_network.node[0].core_layer 	data[0] 	169573
scalar three_caches_scenario_3_links_network.node[0].core_layer 	repo_int[0] 	151669
scalar three_caches_scenario_3_links_network.node[0].content_store 	p_hit[0] 	0.057419831798247
scalar three_caches_scenario_3_links_network.node[0].content_store 	hits[0] 	10330
scalar three_caches_scenario_3_links_network.node[0].content_store 	misses[0] 	169573
scalar three_caches_scenario_3_links_network.node[0].content_store 	decision_yes[0] 	3230
scalar three_caches_scenario_3_links_network.node[0].content_store 	decision_no[0] 	166343
scalar three_caches_scenario_3_links_network.node[1].core_layer 	interests[1] 	132439
scalar three_caches_scenario_3_links_network.node[1].core_layer 	data[1] 	132439
scalar three_caches_scenario_3_links_network.node[1].content_store 	p_hit[1] 	0
scalar three_caches_scenario_3_links_network.node[1].content_store 	hits[1] 	0
scalar three_caches_scenario_3_links_network.node[1].content_store 	misses[1] 	132439
scalar three_caches_scenario_3_links_network.node[1].content_store 	decision_yes[1] 	0
scalar three_caches_scenario_3_links_network.node[1].content_store 	decision_no[1] 	132439
scalar three_caches_scenario_3_links_network.node[2].core_layer 	interests[2] 	24384
scalar three_caches_scenario_3_links_network.node[2].core_layer 	data[2] 	9763
scalar three_caches_scenario_3_links_network.node[2].content_store 	p_hit[2] 	0.59961450131234
scalar three_caches_scenario_3_links_network.node[2].content_store 	hits[2] 	14621
scalar three_caches_scenario_3_links_network.node[2].content_store 	misses[2] 	9763
scalar three_caches_scenario_3_links_network.node[2].content_store 	decision_yes[2] 	1104
scalar three_caches_scenario_3_links_network.node[2].content_store 	decision_no[2] 	8659
scalar three_caches_scenario_3_links_network.node[3].core_layer 	interests[3] 	12750
scalar three_caches_scenario_3_links_network.node[3].core_layer 	data[3] 	9467
scalar three_caches_scenario_3_links_network.node[3].content_store 	p_hit[3] 	0.25749019607843
scalar three_caches_scenario_3_links_network.node[3].content_store 	hits[3] 	3283
scalar three_caches_scenario_3_links_network.node[3].content_store 	misses[3] 	9467
scalar three_caches_scenario_3_links_network.node[3].content_store 	decision_yes[3] 	2137
scalar three_caches_scenario_3_links_network.node[3].content_store 	decision_no[3] 	7330
scalar three_caches_scenario_3_links_network.node[4].core_layer 	interests[4] 	132439
scalar three_caches_scenario_3_links_network.node[4].core_layer 	repo_load[4] 	132439
scalar three_caches_scenario_3_links_network.node[4].core_layer 	data[4] 	0
scalar three_caches_scenario_3_links_network.node[4].content_store 	p_hit[4] 	0
scalar three_caches_scenario_3_links_network.node[4].content_store 	hits[4] 	0
scalar three_caches_scenario_3_links_network.node[4].content_store 	misses[4] 	132439
scalar three_caches_scenario_3_links_network.node[4].content_store 	decision_yes[4] 	0
scalar three_caches_scenario_3_links_network.node[4].content_store 	decision_no[4] 	132439
scalar three_caches_scenario_3_links_network.node[5].core_layer 	interests[5] 	9763
scalar three_caches_scenario_3_links_network.node[5].core_layer 	repo_load[5] 	9763
scalar three_caches_scenario_3_links_network.node[5].core_layer 	data[5] 	0
scalar three_caches_scenario_3_links_network.node[5].content_store 	p_hit[5] 	0
scalar three_caches_scenario_3_links_network.node[5].content_store 	hits[5] 	0
scalar three_caches_scenario_3_links_network.node[5].content_store 	misses[5] 	9763
scalar three_caches_scenario_3_links_network.node[5].content_store 	decision_yes[5] 	0
scalar three_caches_scenario_3_links_network.node[5].content_store 	decision_no[5] 	9763
scalar three_caches_scenario_3_links_network.node[6].core_layer 	interests[6] 	9467
scalar three_caches_scenario_3_links_network.node[6].core_layer 	repo_load[6] 	9467
scalar three_caches_scenario_3_links_network.node[6].core_layer 	data[6] 	0
scalar three_caches_scenario_3_links_network.node[6].content_store 	p_hit[6] 	0
scalar three_caches_scenario_3_links_network.node[6].content_store 	hits[6] 	0
scalar three_caches_scenario_3_links_network.node[6].content_store 	misses[6] 	9467
scalar three_caches_scenario_3_links_network.node[6].content_store 	decision_yes[6] 	0
scalar three_caches_scenario_3_links_network.node[6].content_store 	decision_no[6] 	9467
scalar three_caches_scenario_3_links_network.client[0] 	hdistance[0] 	1.8925309750254
scalar three_caches_scenario_3_links_network.client[0] 	downloads[0] 	179903
scalar three_caches_scenario_3_links_network.client[0] 	avg_time[0] 	0
scalar three_caches_scenario_3_links_network.client[0] 	interests_sent[0] 	179903
