version 2
run General-63-20140423-18:33:18-25818
attr D fix0.1
attr F nrr
attr R lru
attr a 1.2
attr configname General
attr csize 2
attr ctlg 10^3
attr datetime 20140423-18:33:18
attr experiment General
attr inifile omnetpp.ini
attr iterationvars "$net=simple_scenario, $rep=1, $priceratiovalue=2, $a=1.2, $ctlg=10^3, $F=nrr, $ttl=1000, $D=fix0.1, $R=lru, $csize=2"
attr iterationvars2 "$net=simple_scenario, $rep=1, $priceratiovalue=2, $a=1.2, $ctlg=10^3, $F=nrr, $ttl=1000, $D=fix0.1, $R=lru, $csize=2, $repetition=0"
attr measurement "$net=simple_scenario, $rep=1, $priceratiovalue=2, $a=1.2, $ctlg=10^3, $F=nrr, $ttl=1000, $D=fix0.1, $R=lru, $csize=2"
attr net simple_scenario
attr network networks.${net=simple_scenario}_network
attr priceratiovalue 2
attr processid 25818
attr rep 1
attr repetition 0
attr replication #0
attr resultdir results
attr runnumber 63
attr seedset 1
attr ttl 1000

scalar . 	a 	1.2
scalar . 	csize 	2
scalar . 	priceratiovalue 	2
scalar . 	rep 	1
scalar . 	ttl 	1000
scalar simple_scenario_network.content_distribution 	repo-0 	3
scalar simple_scenario_network.content_distribution 	repo-1 	4
scalar simple_scenario_network.content_distribution 	client-0 	0
scalar simple_scenario_network.content_distribution 	repo-0_card 	522
scalar simple_scenario_network.content_distribution 	repo-1_card 	478
scalar simple_scenario_network.statistics 	p_hit 	0.12155178303423
scalar simple_scenario_network.statistics 	interests 	90749.8
scalar simple_scenario_network.statistics 	data 	54778.6
scalar simple_scenario_network.statistics 	hdistance 	2.2161896183613
scalar simple_scenario_network.statistics 	avg_time 	0.001985120949
scalar simple_scenario_network.statistics 	downloads 	179856
scalar simple_scenario_network.statistics 	total_cost 	65496
scalar simple_scenario_network.node[0].core_layer 	interests[0] 	179856
scalar simple_scenario_network.node[0].core_layer 	data[0] 	149191
scalar simple_scenario_network.node[0].core_layer 	repo_int[0] 	124702
scalar simple_scenario_network.node[0].content_store 	p_hit[0] 	0.17049750911841
scalar simple_scenario_network.node[0].content_store 	hits[0] 	30665
scalar simple_scenario_network.node[0].content_store 	misses[0] 	149191
scalar simple_scenario_network.node[1].core_layer 	interests[1] 	59517
scalar simple_scenario_network.node[1].core_layer 	data[1] 	52913
scalar simple_scenario_network.node[1].content_store 	p_hit[1] 	0.11095989381185
scalar simple_scenario_network.node[1].content_store 	hits[1] 	6604
scalar simple_scenario_network.node[1].content_store 	misses[1] 	52913
scalar simple_scenario_network.node[2].core_layer 	interests[2] 	89674
scalar simple_scenario_network.node[2].core_layer 	data[2] 	71789
scalar simple_scenario_network.node[2].content_store 	p_hit[2] 	0.19944465508397
scalar simple_scenario_network.node[2].content_store 	hits[2] 	17885
scalar simple_scenario_network.node[2].content_store 	misses[2] 	71789
scalar simple_scenario_network.node[3].core_layer 	interests[3] 	52913
scalar simple_scenario_network.node[3].core_layer 	repo_load[3] 	52913
scalar simple_scenario_network.node[3].core_layer 	data[3] 	0
scalar simple_scenario_network.node[3].content_store 	p_hit[3] 	0
scalar simple_scenario_network.node[3].content_store 	hits[3] 	0
scalar simple_scenario_network.node[3].content_store 	misses[3] 	52913
scalar simple_scenario_network.node[4].core_layer 	interests[4] 	71789
scalar simple_scenario_network.node[4].core_layer 	repo_load[4] 	71789
scalar simple_scenario_network.node[4].core_layer 	data[4] 	0
scalar simple_scenario_network.node[4].content_store 	p_hit[4] 	0
scalar simple_scenario_network.node[4].content_store 	hits[4] 	0
scalar simple_scenario_network.node[4].content_store 	misses[4] 	71789
scalar simple_scenario_network.client[0] 	hdistance[0] 	2.2161896183613
scalar simple_scenario_network.client[0] 	downloads[0] 	179856
scalar simple_scenario_network.client[0] 	avg_time[0] 	0.001985120949
