version 2
run General-26-20140425-21:36:48-16460
attr D costprob0.02
attr F nrr
attr R lru
attr a 1
attr configname General
attr csize 10
attr ctlg 10^3
attr datetime 20140425-21:36:48
attr experiment General
attr inifile omnetpp.ini
attr iterationvars "$net=one_cache_scenario, $rep=3, $priceratiovalue=2, $a=1, $ctlg=10^3, $F=nrr, $ttl=1000, $D=costprob0.02, $R=lru, $csize=10, $tempo=1800"
attr iterationvars2 "$net=one_cache_scenario, $rep=3, $priceratiovalue=2, $a=1, $ctlg=10^3, $F=nrr, $ttl=1000, $D=costprob0.02, $R=lru, $csize=10, $tempo=1800, $repetition=0"
attr measurement "$net=one_cache_scenario, $rep=3, $priceratiovalue=2, $a=1, $ctlg=10^3, $F=nrr, $ttl=1000, $D=costprob0.02, $R=lru, $csize=10, $tempo=1800"
attr net one_cache_scenario
attr network networks.${net=one_cache_scenario}_network
attr priceratiovalue 2
attr processid 16460
attr rep 3
attr repetition 0
attr replication #0
attr resultdir results
attr runnumber 26
attr seedset 3
attr tempo 1800
attr ttl 1000

scalar . 	a 	1
scalar . 	csize 	10
scalar . 	priceratiovalue 	2
scalar . 	rep 	3
scalar . 	tempo 	1800
scalar . 	ttl 	1000
scalar one_cache_scenario_network.content_distribution 	repo-0 	3
scalar one_cache_scenario_network.content_distribution 	repo-1 	4
scalar one_cache_scenario_network.content_distribution 	client-0 	0
scalar one_cache_scenario_network.content_distribution 	repo-0_card 	495
scalar one_cache_scenario_network.content_distribution 	repo-1_card 	505
scalar one_cache_scenario_network.statistics 	p_hit 	0.14741664362067
scalar one_cache_scenario_network.statistics 	interests 	83167
scalar one_cache_scenario_network.statistics 	data 	47271.2
scalar one_cache_scenario_network.statistics 	hdistance 	1.3169005844695
scalar one_cache_scenario_network.statistics 	avg_time 	0
scalar one_cache_scenario_network.statistics 	downloads 	179479
scalar one_cache_scenario_network.statistics 	total_cost 	58868
scalar one_cache_scenario_network.statistics 	interests_sent 	179479
scalar one_cache_scenario_network.node[0].core_layer 	interests[0] 	179479
scalar one_cache_scenario_network.node[0].core_layer 	data[0] 	118178
scalar one_cache_scenario_network.node[0].core_layer 	repo_int[0] 	118178
scalar one_cache_scenario_network.node[0].content_store 	p_hit[0] 	0.34154970776525
scalar one_cache_scenario_network.node[0].content_store 	hits[0] 	61301
scalar one_cache_scenario_network.node[0].content_store 	misses[0] 	118178
scalar one_cache_scenario_network.node[0].content_store 	decision_yes[0] 	1211
scalar one_cache_scenario_network.node[0].content_store 	decision_no[0] 	116967
scalar one_cache_scenario_network.node[1].core_layer 	interests[1] 	59751
scalar one_cache_scenario_network.node[1].core_layer 	data[1] 	59751
scalar one_cache_scenario_network.node[1].content_store 	p_hit[1] 	0
scalar one_cache_scenario_network.node[1].content_store 	hits[1] 	0
scalar one_cache_scenario_network.node[1].content_store 	misses[1] 	59751
scalar one_cache_scenario_network.node[1].content_store 	decision_yes[1] 	0
scalar one_cache_scenario_network.node[1].content_store 	decision_no[1] 	59751
scalar one_cache_scenario_network.node[2].core_layer 	interests[2] 	58427
scalar one_cache_scenario_network.node[2].core_layer 	data[2] 	58427
scalar one_cache_scenario_network.node[2].content_store 	p_hit[2] 	0
scalar one_cache_scenario_network.node[2].content_store 	hits[2] 	0
scalar one_cache_scenario_network.node[2].content_store 	misses[2] 	58427
scalar one_cache_scenario_network.node[2].content_store 	decision_yes[2] 	0
scalar one_cache_scenario_network.node[2].content_store 	decision_no[2] 	58427
scalar one_cache_scenario_network.node[3].core_layer 	interests[3] 	59751
scalar one_cache_scenario_network.node[3].core_layer 	repo_load[3] 	59751
scalar one_cache_scenario_network.node[3].core_layer 	data[3] 	0
scalar one_cache_scenario_network.node[3].content_store 	p_hit[3] 	0
scalar one_cache_scenario_network.node[3].content_store 	hits[3] 	0
scalar one_cache_scenario_network.node[3].content_store 	misses[3] 	59751
scalar one_cache_scenario_network.node[3].content_store 	decision_yes[3] 	0
scalar one_cache_scenario_network.node[3].content_store 	decision_no[3] 	59751
scalar one_cache_scenario_network.node[4].core_layer 	interests[4] 	58427
scalar one_cache_scenario_network.node[4].core_layer 	repo_load[4] 	58427
scalar one_cache_scenario_network.node[4].core_layer 	data[4] 	0
scalar one_cache_scenario_network.node[4].content_store 	p_hit[4] 	0
scalar one_cache_scenario_network.node[4].content_store 	hits[4] 	0
scalar one_cache_scenario_network.node[4].content_store 	misses[4] 	58427
scalar one_cache_scenario_network.node[4].content_store 	decision_yes[4] 	0
scalar one_cache_scenario_network.node[4].content_store 	decision_no[4] 	58427
scalar one_cache_scenario_network.client[0] 	hdistance[0] 	1.3169005844695
scalar one_cache_scenario_network.client[0] 	downloads[0] 	179479
scalar one_cache_scenario_network.client[0] 	avg_time[0] 	0
scalar one_cache_scenario_network.client[0] 	interests_sent[0] 	179479
