version 2
run General-2380-20140425-03:09:59-13953
attr D lce
attr F nrr
attr R lru
attr a 1.2
attr configname General
attr csize 30
attr ctlg 10^3
attr datetime 20140425-03:09:59
attr experiment General
attr inifile omnetpp.ini
attr iterationvars "$net=one_cache_scenario, $rep=6, $priceratiovalue=7, $a=1.2, $ctlg=10^3, $F=nrr, $ttl=1000, $D=lce, $R=lru, $csize=30"
attr iterationvars2 "$net=one_cache_scenario, $rep=6, $priceratiovalue=7, $a=1.2, $ctlg=10^3, $F=nrr, $ttl=1000, $D=lce, $R=lru, $csize=30, $repetition=0"
attr measurement "$net=one_cache_scenario, $rep=6, $priceratiovalue=7, $a=1.2, $ctlg=10^3, $F=nrr, $ttl=1000, $D=lce, $R=lru, $csize=30"
attr net one_cache_scenario
attr network networks.${net=one_cache_scenario}_network
attr priceratiovalue 7
attr processid 13953
attr rep 6
attr repetition 0
attr replication #0
attr resultdir results
attr runnumber 2380
attr seedset 6
attr ttl 1000

scalar . 	a 	1.2
scalar . 	csize 	30
scalar . 	priceratiovalue 	7
scalar . 	rep 	6
scalar . 	ttl 	1000
scalar one_cache_scenario_network.content_distribution 	repo-0 	3
scalar one_cache_scenario_network.content_distribution 	repo-1 	4
scalar one_cache_scenario_network.content_distribution 	client-0 	0
scalar one_cache_scenario_network.content_distribution 	repo-0_card 	492
scalar one_cache_scenario_network.content_distribution 	repo-1_card 	508
scalar one_cache_scenario_network.statistics 	p_hit 	0.32369667379816
scalar one_cache_scenario_network.statistics 	interests 	65624.4
scalar one_cache_scenario_network.statistics 	data 	29588
scalar one_cache_scenario_network.statistics 	hdistance 	0.82105870730705
scalar one_cache_scenario_network.statistics 	avg_time 	0
scalar one_cache_scenario_network.statistics 	downloads 	180182
scalar one_cache_scenario_network.statistics 	total_cost 	36650
scalar one_cache_scenario_network.statistics 	interests_sent 	180182
scalar one_cache_scenario_network.node[0].core_layer 	interests[0] 	180182
scalar one_cache_scenario_network.node[0].core_layer 	data[0] 	73970
scalar one_cache_scenario_network.node[0].core_layer 	repo_int[0] 	73970
scalar one_cache_scenario_network.node[0].content_store 	p_hit[0] 	0.58947064634647
scalar one_cache_scenario_network.node[0].content_store 	hits[0] 	106212
scalar one_cache_scenario_network.node[0].content_store 	misses[0] 	73970
scalar one_cache_scenario_network.node[0].content_store 	decision_yes[0] 	73970
scalar one_cache_scenario_network.node[0].content_store 	decision_no[0] 	0
scalar one_cache_scenario_network.node[1].core_layer 	interests[1] 	37430
scalar one_cache_scenario_network.node[1].core_layer 	data[1] 	37430
scalar one_cache_scenario_network.node[1].content_store 	p_hit[1] 	0
scalar one_cache_scenario_network.node[1].content_store 	hits[1] 	0
scalar one_cache_scenario_network.node[1].content_store 	misses[1] 	37430
scalar one_cache_scenario_network.node[1].content_store 	decision_yes[1] 	0
scalar one_cache_scenario_network.node[1].content_store 	decision_no[1] 	37430
scalar one_cache_scenario_network.node[2].core_layer 	interests[2] 	36540
scalar one_cache_scenario_network.node[2].core_layer 	data[2] 	36540
scalar one_cache_scenario_network.node[2].content_store 	p_hit[2] 	0
scalar one_cache_scenario_network.node[2].content_store 	hits[2] 	0
scalar one_cache_scenario_network.node[2].content_store 	misses[2] 	36540
scalar one_cache_scenario_network.node[2].content_store 	decision_yes[2] 	0
scalar one_cache_scenario_network.node[2].content_store 	decision_no[2] 	36540
scalar one_cache_scenario_network.node[3].core_layer 	interests[3] 	37430
scalar one_cache_scenario_network.node[3].core_layer 	repo_load[3] 	37430
scalar one_cache_scenario_network.node[3].core_layer 	data[3] 	0
scalar one_cache_scenario_network.node[3].content_store 	p_hit[3] 	0
scalar one_cache_scenario_network.node[3].content_store 	hits[3] 	0
scalar one_cache_scenario_network.node[3].content_store 	misses[3] 	37430
scalar one_cache_scenario_network.node[3].content_store 	decision_yes[3] 	0
scalar one_cache_scenario_network.node[3].content_store 	decision_no[3] 	37430
scalar one_cache_scenario_network.node[4].core_layer 	interests[4] 	36540
scalar one_cache_scenario_network.node[4].core_layer 	repo_load[4] 	36540
scalar one_cache_scenario_network.node[4].core_layer 	data[4] 	0
scalar one_cache_scenario_network.node[4].content_store 	p_hit[4] 	0
scalar one_cache_scenario_network.node[4].content_store 	hits[4] 	0
scalar one_cache_scenario_network.node[4].content_store 	misses[4] 	36540
scalar one_cache_scenario_network.node[4].content_store 	decision_yes[4] 	0
scalar one_cache_scenario_network.node[4].content_store 	decision_no[4] 	36540
scalar one_cache_scenario_network.client[0] 	hdistance[0] 	0.82105870730705
scalar one_cache_scenario_network.client[0] 	downloads[0] 	180182
scalar one_cache_scenario_network.client[0] 	avg_time[0] 	0
scalar one_cache_scenario_network.client[0] 	interests_sent[0] 	180182
