version 2
run General-0-20150717-12:29:07-9546
attr C 1
attr D lce
attr F spr
attr R lru_repr
attr a 1
attr brates 0.3_0.7_1.5_2.5_3.5
attr configname General
attr ctlg 10
attr datetime 20150717-12:29:07
attr experiment General
attr inifile omnetpp.ini
attr iterationvars "$net=abilene_nodelay, $rep=0, $lambda=100, $a=1, $ctlg=10, $brates=0.3_0.7_1.5_2.5_3.5, $F=spr, $ttl=1000, $D=lce, $R=lru_repr, $C=1, $window=60, $variance=0.05, $mytime=180"
attr iterationvars2 "$net=abilene_nodelay, $rep=0, $lambda=100, $a=1, $ctlg=10, $brates=0.3_0.7_1.5_2.5_3.5, $F=spr, $ttl=1000, $D=lce, $R=lru_repr, $C=1, $window=60, $variance=0.05, $mytime=180, $repetition=0"
attr lambda 100
attr measurement "$net=abilene_nodelay, $rep=0, $lambda=100, $a=1, $ctlg=10, $brates=0.3_0.7_1.5_2.5_3.5, $F=spr, $ttl=1000, $D=lce, $R=lru_repr, $C=1, $window=60, $variance=0.05, $mytime=180"
attr mytime 180
attr net abilene_nodelay
attr network networks.${net=abilene_nodelay}_network
attr processid 9546
attr rep 0
attr repetition 0
attr replication #0
attr resultdir results
attr runnumber 0
attr seedset 0
attr ttl 1000
attr variance 0.05
attr window 60

scalar . 	C 	1
scalar . 	a 	1
scalar . 	ctlg 	10
scalar . 	lambda 	100
scalar . 	mytime 	180
scalar . 	rep 	0
scalar . 	ttl 	1000
scalar . 	variance 	0.05
scalar . 	window 	60
scalar abilene_nodelay_network.content_distribution 	repo-0 	5
scalar abilene_nodelay_network.content_distribution 	repo-1 	8
scalar abilene_nodelay_network.content_distribution 	repo-2 	9
scalar abilene_nodelay_network.content_distribution 	repo-3 	0
scalar abilene_nodelay_network.content_distribution 	repo-4 	1
scalar abilene_nodelay_network.content_distribution 	repo-5 	7
scalar abilene_nodelay_network.content_distribution 	repo-6 	6
scalar abilene_nodelay_network.content_distribution 	repo-7 	2
scalar abilene_nodelay_network.content_distribution 	repo-8 	4
scalar abilene_nodelay_network.content_distribution 	repo-9 	10
scalar abilene_nodelay_network.content_distribution 	repo-10 	3
scalar abilene_nodelay_network.content_distribution 	client-0 	10
scalar abilene_nodelay_network.content_distribution 	client-1 	9
scalar abilene_nodelay_network.content_distribution 	client-2 	8
scalar abilene_nodelay_network.content_distribution 	client-3 	7
scalar abilene_nodelay_network.content_distribution 	client-4 	3
scalar abilene_nodelay_network.content_distribution 	client-5 	6
scalar abilene_nodelay_network.content_distribution 	client-6 	5
scalar abilene_nodelay_network.content_distribution 	client-7 	1
scalar abilene_nodelay_network.content_distribution 	client-8 	4
scalar abilene_nodelay_network.content_distribution 	client-9 	0
scalar abilene_nodelay_network.content_distribution 	client-10 	2
scalar abilene_nodelay_network.content_distribution 	repo-0_card 	1
scalar abilene_nodelay_network.content_distribution 	repo-0_price 	0
scalar abilene_nodelay_network.content_distribution 	repo-1_card 	0
scalar abilene_nodelay_network.content_distribution 	repo-1_price 	0
scalar abilene_nodelay_network.content_distribution 	repo-2_card 	1
scalar abilene_nodelay_network.content_distribution 	repo-2_price 	0
scalar abilene_nodelay_network.content_distribution 	repo-3_card 	0
scalar abilene_nodelay_network.content_distribution 	repo-3_price 	0
scalar abilene_nodelay_network.content_distribution 	repo-4_card 	1
scalar abilene_nodelay_network.content_distribution 	repo-4_price 	0
scalar abilene_nodelay_network.content_distribution 	repo-5_card 	0
scalar abilene_nodelay_network.content_distribution 	repo-5_price 	0
scalar abilene_nodelay_network.content_distribution 	repo-6_card 	1
scalar abilene_nodelay_network.content_distribution 	repo-6_price 	0
scalar abilene_nodelay_network.content_distribution 	repo-7_card 	2
scalar abilene_nodelay_network.content_distribution 	repo-7_price 	0
scalar abilene_nodelay_network.content_distribution 	repo-8_card 	1
scalar abilene_nodelay_network.content_distribution 	repo-8_price 	0
scalar abilene_nodelay_network.content_distribution 	repo-9_card 	2
scalar abilene_nodelay_network.content_distribution 	repo-9_price 	0
scalar abilene_nodelay_network.content_distribution 	repo-10_card 	1
scalar abilene_nodelay_network.content_distribution 	repo-10_price 	0
scalar abilene_nodelay_network.statistics 	p_hit 	0.19716451065824
scalar abilene_nodelay_network.statistics 	interests 	269198.36363636
scalar abilene_nodelay_network.statistics 	data 	151744.90909091
scalar abilene_nodelay_network.statistics 	hdistance 	1.486055115496
scalar abilene_nodelay_network.statistics 	avg_time 	0
scalar abilene_nodelay_network.statistics 	downloads 	796941
scalar abilene_nodelay_network.statistics 	total_cost 	0
scalar abilene_nodelay_network.statistics 	total_replicas 	10
scalar abilene_nodelay_network.statistics 	"slots_per_representation 100:233:500:833:1167:" 	0
scalar abilene_nodelay_network.statistics 	inner_hit 	0.11141853662944
scalar abilene_nodelay_network.statistics 	interests_sent 	796941
scalar abilene_nodelay_network.statistics 	execution_time 	288
scalar abilene_nodelay_network.node[0].core_layer 	interests[0] 	100355
scalar abilene_nodelay_network.node[0].core_layer 	data[0] 	69369
scalar abilene_nodelay_network.node[0].core_layer 	slots_sent[face$o[1]->client[0]] 	19242438
scalar abilene_nodelay_network.node[0].core_layer 	slots_sent[face$o[2]->node[1]] 	0
scalar abilene_nodelay_network.node[0].core_layer 	slots_sent[face$o[3]->node[10]] 	0
scalar abilene_nodelay_network.node[0].content_store 	p_hit[0] 	0.3087638881969
scalar abilene_nodelay_network.node[0].content_store 	hits[0] 	30986
scalar abilene_nodelay_network.node[0].content_store 	misses[0] 	69369
scalar abilene_nodelay_network.node[0].content_store 	decision_yes[0] 	69369
scalar abilene_nodelay_network.node[0].content_store 	decision_no[0] 	0
scalar abilene_nodelay_network.node[0].content_store 	decision_ratio[0] 	1
scalar abilene_nodelay_network.node[0].content_store 	"representation_breakdown[0] 3:0:0:0:0:" 	0
scalar abilene_nodelay_network.node[0].proactive_component 	hdistance[0].proactive_component 	2.7499277769753
scalar abilene_nodelay_network.node[0].proactive_component 	downloads[0].proactive_component 	27692
scalar abilene_nodelay_network.node[0].proactive_component 	avg_time[0].proactive_component 	0
scalar abilene_nodelay_network.node[0].proactive_component 	interests_sent[0].proactive_component 	27692
scalar abilene_nodelay_network.node[1].core_layer 	interests[1] 	365945
scalar abilene_nodelay_network.node[1].core_layer 	repo_load[1] 	130944
scalar abilene_nodelay_network.node[1].core_layer 	data[1] 	172738
scalar abilene_nodelay_network.node[1].core_layer 	slots_sent[face$o[1]->client[1]] 	18844870
scalar abilene_nodelay_network.node[1].core_layer 	slots_sent[face$o[2]->node[0]] 	19592555
scalar abilene_nodelay_network.node[1].core_layer 	slots_sent[face$o[3]->node[10]] 	24792229
scalar abilene_nodelay_network.node[1].core_layer 	slots_sent[face$o[4]->node[2]] 	46052668
scalar abilene_nodelay_network.node[1].content_store 	p_hit[1] 	0.17014032163303
scalar abilene_nodelay_network.node[1].content_store 	hits[1] 	62262
scalar abilene_nodelay_network.node[1].content_store 	misses[1] 	303683
scalar abilene_nodelay_network.node[1].content_store 	decision_yes[1] 	172738
scalar abilene_nodelay_network.node[1].content_store 	decision_no[1] 	130944
scalar abilene_nodelay_network.node[1].content_store 	decision_ratio[1] 	0.56881211267049
scalar abilene_nodelay_network.node[1].content_store 	"representation_breakdown[1] 3:1:0:0:0:" 	0
scalar abilene_nodelay_network.node[1].proactive_component 	hdistance[1].proactive_component 	2.6458455763871
scalar abilene_nodelay_network.node[1].proactive_component 	downloads[1].proactive_component 	52751
scalar abilene_nodelay_network.node[1].proactive_component 	avg_time[1].proactive_component 	0
scalar abilene_nodelay_network.node[1].proactive_component 	interests_sent[1].proactive_component 	52752
scalar abilene_nodelay_network.node[2].core_layer 	interests[2] 	440498
scalar abilene_nodelay_network.node[2].core_layer 	repo_load[2] 	99642
scalar abilene_nodelay_network.node[2].core_layer 	data[2] 	269535
scalar abilene_nodelay_network.node[2].core_layer 	slots_sent[face$o[1]->client[2]] 	20755347
scalar abilene_nodelay_network.node[2].core_layer 	slots_sent[face$o[2]->node[1]] 	46517517
scalar abilene_nodelay_network.node[2].core_layer 	slots_sent[face$o[3]->node[3]] 	43108287
scalar abilene_nodelay_network.node[2].core_layer 	slots_sent[face$o[4]->node[8]] 	8120198
scalar abilene_nodelay_network.node[2].content_store 	p_hit[2] 	0.16190992921648
scalar abilene_nodelay_network.node[2].content_store 	hits[2] 	71321
scalar abilene_nodelay_network.node[2].content_store 	misses[2] 	369177
scalar abilene_nodelay_network.node[2].content_store 	decision_yes[2] 	269535
scalar abilene_nodelay_network.node[2].content_store 	decision_no[2] 	99642
scalar abilene_nodelay_network.node[2].content_store 	decision_ratio[2] 	0.73009694536767
scalar abilene_nodelay_network.node[2].content_store 	"representation_breakdown[2] 3:1:1:0:0:" 	0
scalar abilene_nodelay_network.node[2].proactive_component 	hdistance[2].proactive_component 	2.2601086300543
scalar abilene_nodelay_network.node[2].proactive_component 	downloads[2].proactive_component 	62966
scalar abilene_nodelay_network.node[2].proactive_component 	avg_time[2].proactive_component 	0
scalar abilene_nodelay_network.node[2].proactive_component 	interests_sent[2].proactive_component 	62966
scalar abilene_nodelay_network.node[3].core_layer 	interests[3] 	388848
scalar abilene_nodelay_network.node[3].core_layer 	repo_load[3] 	39008
scalar abilene_nodelay_network.node[3].core_layer 	data[3] 	277992
scalar abilene_nodelay_network.node[3].core_layer 	slots_sent[face$o[1]->client[3]] 	20605341
scalar abilene_nodelay_network.node[3].core_layer 	slots_sent[face$o[2]->node[2]] 	57192898
scalar abilene_nodelay_network.node[3].core_layer 	slots_sent[face$o[3]->node[4]] 	20101749
scalar abilene_nodelay_network.node[3].core_layer 	slots_sent[face$o[4]->node[7]] 	11852074
scalar abilene_nodelay_network.node[3].content_store 	p_hit[3] 	0.18477142739579
scalar abilene_nodelay_network.node[3].content_store 	hits[3] 	71848
scalar abilene_nodelay_network.node[3].content_store 	misses[3] 	317000
scalar abilene_nodelay_network.node[3].content_store 	decision_yes[3] 	277992
scalar abilene_nodelay_network.node[3].content_store 	decision_no[3] 	39008
scalar abilene_nodelay_network.node[3].content_store 	decision_ratio[3] 	0.87694637223975
scalar abilene_nodelay_network.node[3].content_store 	"representation_breakdown[3] 3:0:1:0:0:" 	0
scalar abilene_nodelay_network.node[3].proactive_component 	hdistance[3].proactive_component 	2.2856343790453
scalar abilene_nodelay_network.node[3].proactive_component 	downloads[3].proactive_component 	62573
scalar abilene_nodelay_network.node[3].proactive_component 	avg_time[3].proactive_component 	0
scalar abilene_nodelay_network.node[3].proactive_component 	interests_sent[3].proactive_component 	62573
scalar abilene_nodelay_network.node[4].core_layer 	interests[4] 	276253
scalar abilene_nodelay_network.node[4].core_layer 	repo_load[4] 	30148
scalar abilene_nodelay_network.node[4].core_layer 	data[4] 	178208
scalar abilene_nodelay_network.node[4].core_layer 	slots_sent[face$o[1]->client[4]] 	21377593
scalar abilene_nodelay_network.node[4].core_layer 	slots_sent[face$o[2]->node[3]] 	63866317
scalar abilene_nodelay_network.node[4].core_layer 	slots_sent[face$o[3]->node[5]] 	11935732
scalar abilene_nodelay_network.node[4].content_store 	p_hit[4] 	0.24577832638922
scalar abilene_nodelay_network.node[4].content_store 	hits[4] 	67897
scalar abilene_nodelay_network.node[4].content_store 	misses[4] 	208356
scalar abilene_nodelay_network.node[4].content_store 	decision_yes[4] 	178208
scalar abilene_nodelay_network.node[4].content_store 	decision_no[4] 	30148
scalar abilene_nodelay_network.node[4].content_store 	decision_ratio[4] 	0.85530534277871
scalar abilene_nodelay_network.node[4].content_store 	"representation_breakdown[4] 1:0:1:0:0:" 	0
scalar abilene_nodelay_network.node[4].proactive_component 	hdistance[4].proactive_component 	2.2179322366271
scalar abilene_nodelay_network.node[4].proactive_component 	downloads[4].proactive_component 	45895
scalar abilene_nodelay_network.node[4].proactive_component 	avg_time[4].proactive_component 	0
scalar abilene_nodelay_network.node[4].proactive_component 	interests_sent[4].proactive_component 	45895
scalar abilene_nodelay_network.node[5].core_layer 	interests[5] 	267238
scalar abilene_nodelay_network.node[5].core_layer 	repo_load[5] 	190896
scalar abilene_nodelay_network.node[5].core_layer 	data[5] 	52503
scalar abilene_nodelay_network.node[5].core_layer 	slots_sent[face$o[1]->client[5]] 	11805671
scalar abilene_nodelay_network.node[5].core_layer 	slots_sent[face$o[2]->node[4]] 	58409630
scalar abilene_nodelay_network.node[5].core_layer 	slots_sent[face$o[3]->node[6]] 	40496910
scalar abilene_nodelay_network.node[5].content_store 	p_hit[5] 	0.089205128013232
scalar abilene_nodelay_network.node[5].content_store 	hits[5] 	23839
scalar abilene_nodelay_network.node[5].content_store 	misses[5] 	243399
scalar abilene_nodelay_network.node[5].content_store 	decision_yes[5] 	52503
scalar abilene_nodelay_network.node[5].content_store 	decision_no[5] 	190896
scalar abilene_nodelay_network.node[5].content_store 	decision_ratio[5] 	0.21570754193731
scalar abilene_nodelay_network.node[5].content_store 	"representation_breakdown[5] 4:0:0:0:0:" 	0
scalar abilene_nodelay_network.node[5].proactive_component 	hdistance[5].proactive_component 	3.9306845913431
scalar abilene_nodelay_network.node[5].proactive_component 	downloads[5].proactive_component 	23357
scalar abilene_nodelay_network.node[5].proactive_component 	avg_time[5].proactive_component 	0
scalar abilene_nodelay_network.node[5].proactive_component 	interests_sent[5].proactive_component 	23357
scalar abilene_nodelay_network.node[6].core_layer 	interests[6] 	206703
scalar abilene_nodelay_network.node[6].core_layer 	repo_load[6] 	27440
scalar abilene_nodelay_network.node[6].core_layer 	data[6] 	120299
scalar abilene_nodelay_network.node[6].core_layer 	slots_sent[face$o[1]->client[6]] 	21904651
scalar abilene_nodelay_network.node[6].core_layer 	slots_sent[face$o[2]->node[5]] 	2932462
scalar abilene_nodelay_network.node[6].core_layer 	slots_sent[face$o[3]->node[7]] 	41505678
scalar abilene_nodelay_network.node[6].content_store 	p_hit[6] 	0.28525952695413
scalar abilene_nodelay_network.node[6].content_store 	hits[6] 	58964
scalar abilene_nodelay_network.node[6].content_store 	misses[6] 	147739
scalar abilene_nodelay_network.node[6].content_store 	decision_yes[6] 	120299
scalar abilene_nodelay_network.node[6].content_store 	decision_no[6] 	27440
scalar abilene_nodelay_network.node[6].content_store 	decision_ratio[6] 	0.81426705203095
scalar abilene_nodelay_network.node[6].content_store 	"representation_breakdown[6] 0:0:0:0:1:" 	0
scalar abilene_nodelay_network.node[6].proactive_component 	hdistance[6].proactive_component 	2.2332463642074
scalar abilene_nodelay_network.node[6].proactive_component 	downloads[6].proactive_component 	41394
scalar abilene_nodelay_network.node[6].proactive_component 	avg_time[6].proactive_component 	0
scalar abilene_nodelay_network.node[6].proactive_component 	interests_sent[6].proactive_component 	41394
scalar abilene_nodelay_network.node[7].core_layer 	interests[7] 	232634
scalar abilene_nodelay_network.node[7].core_layer 	data[7] 	175071
scalar abilene_nodelay_network.node[7].core_layer 	slots_sent[face$o[1]->client[7]] 	20854295
scalar abilene_nodelay_network.node[7].core_layer 	slots_sent[face$o[2]->node[3]] 	1454924
scalar abilene_nodelay_network.node[7].core_layer 	slots_sent[face$o[3]->node[6]] 	11146929
scalar abilene_nodelay_network.node[7].core_layer 	slots_sent[face$o[4]->node[8]] 	27374579
scalar abilene_nodelay_network.node[7].content_store 	p_hit[7] 	0.24744018501165
scalar abilene_nodelay_network.node[7].content_store 	hits[7] 	57563
scalar abilene_nodelay_network.node[7].content_store 	misses[7] 	175071
scalar abilene_nodelay_network.node[7].content_store 	decision_yes[7] 	175071
scalar abilene_nodelay_network.node[7].content_store 	decision_no[7] 	0
scalar abilene_nodelay_network.node[7].content_store 	decision_ratio[7] 	1
scalar abilene_nodelay_network.node[7].content_store 	"representation_breakdown[7] 1:0:0:0:0:" 	0
scalar abilene_nodelay_network.node[7].proactive_component 	hdistance[7].proactive_component 	2.2393256846631
scalar abilene_nodelay_network.node[7].proactive_component 	downloads[7].proactive_component 	49769
scalar abilene_nodelay_network.node[7].proactive_component 	avg_time[7].proactive_component 	0
scalar abilene_nodelay_network.node[7].proactive_component 	interests_sent[7].proactive_component 	49769
scalar abilene_nodelay_network.node[8].core_layer 	interests[8] 	229756
scalar abilene_nodelay_network.node[8].core_layer 	data[8] 	171165
scalar abilene_nodelay_network.node[8].core_layer 	slots_sent[face$o[1]->client[8]] 	20156074
scalar abilene_nodelay_network.node[8].core_layer 	slots_sent[face$o[2]->node[2]] 	4703841
scalar abilene_nodelay_network.node[8].core_layer 	slots_sent[face$o[3]->node[7]] 	11305693
scalar abilene_nodelay_network.node[8].core_layer 	slots_sent[face$o[4]->node[9]] 	15656515
scalar abilene_nodelay_network.node[8].content_store 	p_hit[8] 	0.25501401486795
scalar abilene_nodelay_network.node[8].content_store 	hits[8] 	58591
scalar abilene_nodelay_network.node[8].content_store 	misses[8] 	171165
scalar abilene_nodelay_network.node[8].content_store 	decision_yes[8] 	171165
scalar abilene_nodelay_network.node[8].content_store 	decision_no[8] 	0
scalar abilene_nodelay_network.node[8].content_store 	decision_ratio[8] 	1
scalar abilene_nodelay_network.node[8].content_store 	"representation_breakdown[8] 2:2:1:0:0:" 	0
scalar abilene_nodelay_network.node[8].proactive_component 	hdistance[8].proactive_component 	2.1445383111373
scalar abilene_nodelay_network.node[8].proactive_component 	downloads[8].proactive_component 	54214
scalar abilene_nodelay_network.node[8].proactive_component 	avg_time[8].proactive_component 	0
scalar abilene_nodelay_network.node[8].proactive_component 	interests_sent[8].proactive_component 	54214
scalar abilene_nodelay_network.node[9].core_layer 	interests[9] 	208102
scalar abilene_nodelay_network.node[9].core_layer 	repo_load[9] 	67255
scalar abilene_nodelay_network.node[9].core_layer 	data[9] 	99708
scalar abilene_nodelay_network.node[9].core_layer 	slots_sent[face$o[1]->client[9]] 	18505194
scalar abilene_nodelay_network.node[9].core_layer 	slots_sent[face$o[2]->node[10]] 	5958284
scalar abilene_nodelay_network.node[9].core_layer 	slots_sent[face$o[3]->node[8]] 	25281639
scalar abilene_nodelay_network.node[9].content_store 	p_hit[9] 	0.19768671132425
scalar abilene_nodelay_network.node[9].content_store 	hits[9] 	41139
scalar abilene_nodelay_network.node[9].content_store 	misses[9] 	166963
scalar abilene_nodelay_network.node[9].content_store 	decision_yes[9] 	99708
scalar abilene_nodelay_network.node[9].content_store 	decision_no[9] 	67255
scalar abilene_nodelay_network.node[9].content_store 	decision_ratio[9] 	0.59718620293119
scalar abilene_nodelay_network.node[9].content_store 	"representation_breakdown[9] 3:2:0:0:0:" 	0
scalar abilene_nodelay_network.node[9].proactive_component 	hdistance[9].proactive_component 	2.3347711290618
scalar abilene_nodelay_network.node[9].proactive_component 	downloads[9].proactive_component 	38253
scalar abilene_nodelay_network.node[9].proactive_component 	avg_time[9].proactive_component 	0
scalar abilene_nodelay_network.node[9].proactive_component 	interests_sent[9].proactive_component 	38253
scalar abilene_nodelay_network.node[10].core_layer 	interests[10] 	244850
scalar abilene_nodelay_network.node[10].core_layer 	repo_load[10] 	122814
scalar abilene_nodelay_network.node[10].core_layer 	data[10] 	82606
scalar abilene_nodelay_network.node[10].core_layer 	slots_sent[face$o[1]->client[10]] 	19393277
scalar abilene_nodelay_network.node[10].core_layer 	slots_sent[face$o[2]->node[0]] 	3567271
scalar abilene_nodelay_network.node[10].core_layer 	slots_sent[face$o[3]->node[1]] 	17614706
scalar abilene_nodelay_network.node[10].core_layer 	slots_sent[face$o[4]->node[9]] 	19329357
scalar abilene_nodelay_network.node[10].content_store 	p_hit[10] 	0.16103736981826
scalar abilene_nodelay_network.node[10].content_store 	hits[10] 	39430
scalar abilene_nodelay_network.node[10].content_store 	misses[10] 	205420
scalar abilene_nodelay_network.node[10].content_store 	decision_yes[10] 	82606
scalar abilene_nodelay_network.node[10].content_store 	decision_no[10] 	122814
scalar abilene_nodelay_network.node[10].content_store 	decision_ratio[10] 	0.40213221692143
scalar abilene_nodelay_network.node[10].content_store 	"representation_breakdown[10] 1:0:1:0:0:" 	0
scalar abilene_nodelay_network.node[10].proactive_component 	hdistance[10].proactive_component 	2.453414775711
scalar abilene_nodelay_network.node[10].proactive_component 	downloads[10].proactive_component 	36181
scalar abilene_nodelay_network.node[10].proactive_component 	avg_time[10].proactive_component 	0
scalar abilene_nodelay_network.node[10].proactive_component 	interests_sent[10].proactive_component 	36181
scalar abilene_nodelay_network.client[0] 	hdistance[0].real 	1.4559679616861
scalar abilene_nodelay_network.client[0] 	downloads[0].real 	72663
scalar abilene_nodelay_network.client[0] 	avg_time[0].real 	0
scalar abilene_nodelay_network.client[0] 	interests_sent[0].real 	72663
scalar abilene_nodelay_network.client[1] 	hdistance[1].real 	1.3905115043513
scalar abilene_nodelay_network.client[1] 	downloads[1].real 	72277
scalar abilene_nodelay_network.client[1] 	avg_time[1].real 	0
scalar abilene_nodelay_network.client[1] 	interests_sent[1].real 	72277
scalar abilene_nodelay_network.client[2] 	hdistance[2].real 	1.33263998898
scalar abilene_nodelay_network.client[2] 	downloads[2].real 	72595
scalar abilene_nodelay_network.client[2] 	avg_time[2].real 	0
scalar abilene_nodelay_network.client[2] 	interests_sent[2].real 	72595
scalar abilene_nodelay_network.client[3] 	hdistance[3].real 	1.4701579063604
scalar abilene_nodelay_network.client[3] 	downloads[3].real 	72448
scalar abilene_nodelay_network.client[3] 	avg_time[3].real 	0
scalar abilene_nodelay_network.client[3] 	interests_sent[3].real 	72448
scalar abilene_nodelay_network.client[4] 	hdistance[4].real 	1.7437188695341
scalar abilene_nodelay_network.client[4] 	downloads[4].real 	72678
scalar abilene_nodelay_network.client[4] 	avg_time[4].real 	0
scalar abilene_nodelay_network.client[4] 	interests_sent[4].real 	72678
scalar abilene_nodelay_network.client[5] 	hdistance[5].real 	1.5709347345133
scalar abilene_nodelay_network.client[5] 	downloads[5].real 	72320
scalar abilene_nodelay_network.client[5] 	avg_time[5].real 	0
scalar abilene_nodelay_network.client[5] 	interests_sent[5].real 	72320
scalar abilene_nodelay_network.client[6] 	hdistance[6].real 	1.7593861822186
scalar abilene_nodelay_network.client[6] 	downloads[6].real 	72660
scalar abilene_nodelay_network.client[6] 	avg_time[6].real 	0
scalar abilene_nodelay_network.client[6] 	interests_sent[6].real 	72660
scalar abilene_nodelay_network.client[7] 	hdistance[7].real 	1.4394506693931
scalar abilene_nodelay_network.client[7] 	downloads[7].real 	72379
scalar abilene_nodelay_network.client[7] 	avg_time[7].real 	0
scalar abilene_nodelay_network.client[7] 	interests_sent[7].real 	72379
scalar abilene_nodelay_network.client[8] 	hdistance[8].real 	1.3634580336399
scalar abilene_nodelay_network.client[8] 	downloads[8].real 	71879
scalar abilene_nodelay_network.client[8] 	avg_time[8].real 	0
scalar abilene_nodelay_network.client[8] 	interests_sent[8].real 	71879
scalar abilene_nodelay_network.client[9] 	hdistance[9].real 	1.460301036105
scalar abilene_nodelay_network.client[9] 	downloads[9].real 	72483
scalar abilene_nodelay_network.client[9] 	avg_time[9].real 	0
scalar abilene_nodelay_network.client[9] 	interests_sent[9].real 	72483
scalar abilene_nodelay_network.client[10] 	hdistance[10].real 	1.360079383674
scalar abilene_nodelay_network.client[10] 	downloads[10].real 	72559
scalar abilene_nodelay_network.client[10] 	avg_time[10].real 	0
scalar abilene_nodelay_network.client[10] 	interests_sent[10].real 	72559
