version 2
run General-2431-20140423-19:33:27-28411
attr D fix0.01
attr F nrr
attr R lru
attr a 0.8
attr configname General
attr csize 2
attr ctlg 10^3
attr datetime 20140423-19:33:27
attr experiment General
attr inifile omnetpp.ini
attr iterationvars "$net=simple_scenario, $rep=7, $priceratiovalue=8, $a=0.8, $ctlg=10^3, $F=nrr, $ttl=1000, $D=fix0.01, $R=lru, $csize=2"
attr iterationvars2 "$net=simple_scenario, $rep=7, $priceratiovalue=8, $a=0.8, $ctlg=10^3, $F=nrr, $ttl=1000, $D=fix0.01, $R=lru, $csize=2, $repetition=0"
attr measurement "$net=simple_scenario, $rep=7, $priceratiovalue=8, $a=0.8, $ctlg=10^3, $F=nrr, $ttl=1000, $D=fix0.01, $R=lru, $csize=2"
attr net simple_scenario
attr network networks.${net=simple_scenario}_network
attr priceratiovalue 8
attr processid 28411
attr rep 7
attr repetition 0
attr replication #0
attr resultdir results
attr runnumber 2431
attr seedset 7
attr ttl 1000

scalar . 	a 	0.8
scalar . 	csize 	2
scalar . 	priceratiovalue 	8
scalar . 	rep 	7
scalar . 	ttl 	1000
scalar simple_scenario_network.content_distribution 	repo-0 	3
scalar simple_scenario_network.content_distribution 	repo-1 	4
scalar simple_scenario_network.content_distribution 	client-0 	0
scalar simple_scenario_network.content_distribution 	repo-0_card 	505
scalar simple_scenario_network.content_distribution 	repo-1_card 	495
scalar simple_scenario_network.statistics 	p_hit 	0.025721926567894
scalar simple_scenario_network.statistics 	interests 	104401.2
scalar simple_scenario_network.statistics 	data 	68308
scalar simple_scenario_network.statistics 	hdistance 	2.8181430297119
scalar simple_scenario_network.statistics 	avg_time 	0.001998146568
scalar simple_scenario_network.statistics 	downloads 	180466
scalar simple_scenario_network.statistics 	total_cost 	86811
scalar simple_scenario_network.node[0].core_layer 	interests[0] 	180466
scalar simple_scenario_network.node[0].core_layer 	data[0] 	174501
scalar simple_scenario_network.node[0].core_layer 	repo_int[0] 	167039
scalar simple_scenario_network.node[0].content_store 	p_hit[0] 	0.033053317522414
scalar simple_scenario_network.node[0].content_store 	hits[0] 	5965
scalar simple_scenario_network.node[0].content_store 	misses[0] 	174501
scalar simple_scenario_network.node[1].core_layer 	interests[1] 	82339
scalar simple_scenario_network.node[1].core_layer 	data[1] 	79286
scalar simple_scenario_network.node[1].content_store 	p_hit[1] 	0.037078419703907
scalar simple_scenario_network.node[1].content_store 	hits[1] 	3053
scalar simple_scenario_network.node[1].content_store 	misses[1] 	79286
scalar simple_scenario_network.node[2].core_layer 	interests[2] 	92162
scalar simple_scenario_network.node[2].core_layer 	data[2] 	87753
scalar simple_scenario_network.node[2].content_store 	p_hit[2] 	0.047839673618194
scalar simple_scenario_network.node[2].content_store 	hits[2] 	4409
scalar simple_scenario_network.node[2].content_store 	misses[2] 	87753
scalar simple_scenario_network.node[3].core_layer 	interests[3] 	79286
scalar simple_scenario_network.node[3].core_layer 	repo_load[3] 	79286
scalar simple_scenario_network.node[3].core_layer 	data[3] 	0
scalar simple_scenario_network.node[3].content_store 	p_hit[3] 	0
scalar simple_scenario_network.node[3].content_store 	hits[3] 	0
scalar simple_scenario_network.node[3].content_store 	misses[3] 	79286
scalar simple_scenario_network.node[4].core_layer 	interests[4] 	87753
scalar simple_scenario_network.node[4].core_layer 	repo_load[4] 	87753
scalar simple_scenario_network.node[4].core_layer 	data[4] 	0
scalar simple_scenario_network.node[4].content_store 	p_hit[4] 	0
scalar simple_scenario_network.node[4].content_store 	hits[4] 	0
scalar simple_scenario_network.node[4].content_store 	misses[4] 	87753
scalar simple_scenario_network.client[0] 	hdistance[0] 	2.8181430297119
scalar simple_scenario_network.client[0] 	downloads[0] 	180466
scalar simple_scenario_network.client[0] 	avg_time[0] 	0.001998146568
