version 2
run General-1378-20140425-16:22:36-13906
attr D costprob0.2
attr F nrr
attr R lru
attr a 1.2
attr configname General
attr csize 30
attr ctlg 10^3
attr datetime 20140425-16:22:36
attr experiment General
attr inifile omnetpp.ini
attr iterationvars "$net=one_cache_scenario, $rep=12, $priceratiovalue=5, $a=1.2, $ctlg=10^3, $F=nrr, $ttl=1000, $D=costprob0.2, $R=lru, $csize=30"
attr iterationvars2 "$net=one_cache_scenario, $rep=12, $priceratiovalue=5, $a=1.2, $ctlg=10^3, $F=nrr, $ttl=1000, $D=costprob0.2, $R=lru, $csize=30, $repetition=0"
attr measurement "$net=one_cache_scenario, $rep=12, $priceratiovalue=5, $a=1.2, $ctlg=10^3, $F=nrr, $ttl=1000, $D=costprob0.2, $R=lru, $csize=30"
attr net one_cache_scenario
attr network networks.${net=one_cache_scenario}_network
attr priceratiovalue 5
attr processid 13906
attr rep 12
attr repetition 0
attr replication #0
attr resultdir results
attr runnumber 1378
attr seedset 12
attr ttl 1000

scalar . 	a 	1.2
scalar . 	csize 	30
scalar . 	priceratiovalue 	5
scalar . 	rep 	12
scalar . 	ttl 	1000
scalar one_cache_scenario_network.content_distribution 	repo-0 	3
scalar one_cache_scenario_network.content_distribution 	repo-1 	4
scalar one_cache_scenario_network.content_distribution 	client-0 	0
scalar one_cache_scenario_network.content_distribution 	repo-0_card 	506
scalar one_cache_scenario_network.content_distribution 	repo-1_card 	494
scalar one_cache_scenario_network.statistics 	p_hit 	0.38586619100647
scalar one_cache_scenario_network.statistics 	interests 	60883.8
scalar one_cache_scenario_network.statistics 	data 	24927.2
scalar one_cache_scenario_network.statistics 	hdistance 	0.69325798323535
scalar one_cache_scenario_network.statistics 	avg_time 	0
scalar one_cache_scenario_network.statistics 	downloads 	179783
scalar one_cache_scenario_network.statistics 	total_cost 	31670
scalar one_cache_scenario_network.statistics 	interests_sent 	179783
scalar one_cache_scenario_network.node[0].core_layer 	interests[0] 	179783
scalar one_cache_scenario_network.node[0].core_layer 	data[0] 	62318
scalar one_cache_scenario_network.node[0].core_layer 	repo_int[0] 	62318
scalar one_cache_scenario_network.node[0].content_store 	p_hit[0] 	0.65337100838233
scalar one_cache_scenario_network.node[0].content_store 	hits[0] 	117465
scalar one_cache_scenario_network.node[0].content_store 	misses[0] 	62318
scalar one_cache_scenario_network.node[0].content_store 	decision_yes[0] 	6289
scalar one_cache_scenario_network.node[0].content_store 	decision_no[0] 	56029
scalar one_cache_scenario_network.node[1].core_layer 	interests[1] 	30392
scalar one_cache_scenario_network.node[1].core_layer 	data[1] 	30392
scalar one_cache_scenario_network.node[1].content_store 	p_hit[1] 	0
scalar one_cache_scenario_network.node[1].content_store 	hits[1] 	0
scalar one_cache_scenario_network.node[1].content_store 	misses[1] 	30392
scalar one_cache_scenario_network.node[1].content_store 	decision_yes[1] 	0
scalar one_cache_scenario_network.node[1].content_store 	decision_no[1] 	30392
scalar one_cache_scenario_network.node[2].core_layer 	interests[2] 	31926
scalar one_cache_scenario_network.node[2].core_layer 	data[2] 	31926
scalar one_cache_scenario_network.node[2].content_store 	p_hit[2] 	0
scalar one_cache_scenario_network.node[2].content_store 	hits[2] 	0
scalar one_cache_scenario_network.node[2].content_store 	misses[2] 	31926
scalar one_cache_scenario_network.node[2].content_store 	decision_yes[2] 	0
scalar one_cache_scenario_network.node[2].content_store 	decision_no[2] 	31926
scalar one_cache_scenario_network.node[3].core_layer 	interests[3] 	30392
scalar one_cache_scenario_network.node[3].core_layer 	repo_load[3] 	30392
scalar one_cache_scenario_network.node[3].core_layer 	data[3] 	0
scalar one_cache_scenario_network.node[3].content_store 	p_hit[3] 	0
scalar one_cache_scenario_network.node[3].content_store 	hits[3] 	0
scalar one_cache_scenario_network.node[3].content_store 	misses[3] 	30392
scalar one_cache_scenario_network.node[3].content_store 	decision_yes[3] 	0
scalar one_cache_scenario_network.node[3].content_store 	decision_no[3] 	30392
scalar one_cache_scenario_network.node[4].core_layer 	interests[4] 	31926
scalar one_cache_scenario_network.node[4].core_layer 	repo_load[4] 	31926
scalar one_cache_scenario_network.node[4].core_layer 	data[4] 	0
scalar one_cache_scenario_network.node[4].content_store 	p_hit[4] 	0
scalar one_cache_scenario_network.node[4].content_store 	hits[4] 	0
scalar one_cache_scenario_network.node[4].content_store 	misses[4] 	31926
scalar one_cache_scenario_network.node[4].content_store 	decision_yes[4] 	0
scalar one_cache_scenario_network.node[4].content_store 	decision_no[4] 	31926
scalar one_cache_scenario_network.client[0] 	hdistance[0] 	0.69325798323535
scalar one_cache_scenario_network.client[0] 	downloads[0] 	179783
scalar one_cache_scenario_network.client[0] 	avg_time[0] 	0
scalar one_cache_scenario_network.client[0] 	interests_sent[0] 	179783
