version 2
run General-2105-20140502-05:06:00-11043
attr D fix0.01
attr F nrr
attr R lru
attr a 1
attr configname General
attr csize 1e3
attr ctlg 1e5
attr datetime 20140502-05:06:00
attr experiment General
attr inifile omnetpp.ini
attr iterationvars "$net=three_caches_scenario_3_links, $rep=4, $priceratiovalue=5, $weights=0.7_0.15_0.15, $a=1, $ctlg=1e5, $F=nrr, $ttl=1000, $D=fix0.01, $xi=1, $R=lru, $csize=1e3"
attr iterationvars2 "$net=three_caches_scenario_3_links, $rep=4, $priceratiovalue=5, $weights=0.7_0.15_0.15, $a=1, $ctlg=1e5, $F=nrr, $ttl=1000, $D=fix0.01, $xi=1, $R=lru, $csize=1e3, $repetition=0"
attr measurement "$net=three_caches_scenario_3_links, $rep=4, $priceratiovalue=5, $weights=0.7_0.15_0.15, $a=1, $ctlg=1e5, $F=nrr, $ttl=1000, $D=fix0.01, $xi=1, $R=lru, $csize=1e3"
attr net three_caches_scenario_3_links
attr network networks.${net=three_caches_scenario_3_links}_network
attr priceratiovalue 5
attr processid 11043
attr rep 4
attr repetition 0
attr replication #0
attr resultdir results
attr runnumber 2105
attr seedset 4
attr ttl 1000
attr weights 0.7_0.15_0.15
attr xi 1

scalar . 	a 	1
scalar . 	csize 	1e3
scalar . 	ctlg 	1e5
scalar . 	priceratiovalue 	5
scalar . 	rep 	4
scalar . 	ttl 	1000
scalar . 	xi 	1
scalar three_caches_scenario_3_links_network.content_distribution 	repo-0 	4
scalar three_caches_scenario_3_links_network.content_distribution 	repo-1 	5
scalar three_caches_scenario_3_links_network.content_distribution 	repo-2 	6
scalar three_caches_scenario_3_links_network.content_distribution 	client-0 	0
scalar three_caches_scenario_3_links_network.content_distribution 	repo-0_card 	70058
scalar three_caches_scenario_3_links_network.content_distribution 	repo-1_card 	14957
scalar three_caches_scenario_3_links_network.content_distribution 	repo-2_card 	14985
scalar three_caches_scenario_3_links_network.statistics 	p_hit 	0.27247479475527
scalar three_caches_scenario_3_links_network.statistics 	interests 	50358
scalar three_caches_scenario_3_links_network.statistics 	data 	24678.285714286
scalar three_caches_scenario_3_links_network.statistics 	hdistance 	1.0799741875188
scalar three_caches_scenario_3_links_network.statistics 	avg_time 	0
scalar three_caches_scenario_3_links_network.statistics 	downloads 	179758
scalar three_caches_scenario_3_links_network.statistics 	total_cost 	64310
scalar three_caches_scenario_3_links_network.statistics 	total_replicas 	100000
scalar three_caches_scenario_3_links_network.statistics 	interests_sent 	179758
scalar three_caches_scenario_3_links_network.node[0].core_layer 	interests[0] 	179758
scalar three_caches_scenario_3_links_network.node[0].core_layer 	data[0] 	89039
scalar three_caches_scenario_3_links_network.node[0].core_layer 	repo_int[0] 	83709
scalar three_caches_scenario_3_links_network.node[0].content_store 	p_hit[0] 	0.50467294918724
scalar three_caches_scenario_3_links_network.node[0].content_store 	hits[0] 	90719
scalar three_caches_scenario_3_links_network.node[0].content_store 	misses[0] 	89039
scalar three_caches_scenario_3_links_network.node[0].content_store 	decision_yes[0] 	922
scalar three_caches_scenario_3_links_network.node[0].content_store 	decision_no[0] 	88117
scalar three_caches_scenario_3_links_network.node[1].core_layer 	interests[1] 	62323
scalar three_caches_scenario_3_links_network.node[1].core_layer 	data[1] 	62323
scalar three_caches_scenario_3_links_network.node[1].content_store 	p_hit[1] 	0
scalar three_caches_scenario_3_links_network.node[1].content_store 	hits[1] 	0
scalar three_caches_scenario_3_links_network.node[1].content_store 	misses[1] 	62323
scalar three_caches_scenario_3_links_network.node[1].content_store 	decision_yes[1] 	0
scalar three_caches_scenario_3_links_network.node[1].content_store 	decision_no[1] 	62323
scalar three_caches_scenario_3_links_network.node[2].core_layer 	interests[2] 	13533
scalar three_caches_scenario_3_links_network.node[2].core_layer 	data[2] 	10655
scalar three_caches_scenario_3_links_network.node[2].content_store 	p_hit[2] 	0.21266533658464
scalar three_caches_scenario_3_links_network.node[2].content_store 	hits[2] 	2878
scalar three_caches_scenario_3_links_network.node[2].content_store 	misses[2] 	10655
scalar three_caches_scenario_3_links_network.node[2].content_store 	decision_yes[2] 	103
scalar three_caches_scenario_3_links_network.node[2].content_store 	decision_no[2] 	10552
scalar three_caches_scenario_3_links_network.node[3].core_layer 	interests[3] 	13183
scalar three_caches_scenario_3_links_network.node[3].core_layer 	data[3] 	10731
scalar three_caches_scenario_3_links_network.node[3].content_store 	p_hit[3] 	0.18599711749981
scalar three_caches_scenario_3_links_network.node[3].content_store 	hits[3] 	2452
scalar three_caches_scenario_3_links_network.node[3].content_store 	misses[3] 	10731
scalar three_caches_scenario_3_links_network.node[3].content_store 	decision_yes[3] 	113
scalar three_caches_scenario_3_links_network.node[3].content_store 	decision_no[3] 	10618
scalar three_caches_scenario_3_links_network.node[4].core_layer 	interests[4] 	62323
scalar three_caches_scenario_3_links_network.node[4].core_layer 	repo_load[4] 	62323
scalar three_caches_scenario_3_links_network.node[4].core_layer 	data[4] 	0
scalar three_caches_scenario_3_links_network.node[4].content_store 	p_hit[4] 	0
scalar three_caches_scenario_3_links_network.node[4].content_store 	hits[4] 	0
scalar three_caches_scenario_3_links_network.node[4].content_store 	misses[4] 	62323
scalar three_caches_scenario_3_links_network.node[4].content_store 	decision_yes[4] 	0
scalar three_caches_scenario_3_links_network.node[4].content_store 	decision_no[4] 	62323
scalar three_caches_scenario_3_links_network.node[5].core_layer 	interests[5] 	10655
scalar three_caches_scenario_3_links_network.node[5].core_layer 	repo_load[5] 	10655
scalar three_caches_scenario_3_links_network.node[5].core_layer 	data[5] 	0
scalar three_caches_scenario_3_links_network.node[5].content_store 	p_hit[5] 	0
scalar three_caches_scenario_3_links_network.node[5].content_store 	hits[5] 	0
scalar three_caches_scenario_3_links_network.node[5].content_store 	misses[5] 	10655
scalar three_caches_scenario_3_links_network.node[5].content_store 	decision_yes[5] 	0
scalar three_caches_scenario_3_links_network.node[5].content_store 	decision_no[5] 	10655
scalar three_caches_scenario_3_links_network.node[6].core_layer 	interests[6] 	10731
scalar three_caches_scenario_3_links_network.node[6].core_layer 	repo_load[6] 	10731
scalar three_caches_scenario_3_links_network.node[6].core_layer 	data[6] 	0
scalar three_caches_scenario_3_links_network.node[6].content_store 	p_hit[6] 	0
scalar three_caches_scenario_3_links_network.node[6].content_store 	hits[6] 	0
scalar three_caches_scenario_3_links_network.node[6].content_store 	misses[6] 	10731
scalar three_caches_scenario_3_links_network.node[6].content_store 	decision_yes[6] 	0
scalar three_caches_scenario_3_links_network.node[6].content_store 	decision_no[6] 	10731
scalar three_caches_scenario_3_links_network.client[0] 	hdistance[0] 	1.0799741875188
scalar three_caches_scenario_3_links_network.client[0] 	downloads[0] 	179758
scalar three_caches_scenario_3_links_network.client[0] 	avg_time[0] 	0
scalar three_caches_scenario_3_links_network.client[0] 	interests_sent[0] 	179758
