version 2
run General-1973-20140502-04:51:04-10908
attr D fix0.01
attr F nrr
attr R lru
attr a 1.2
attr configname General
attr csize 1e3
attr ctlg 1e5
attr datetime 20140502-04:51:04
attr experiment General
attr inifile omnetpp.ini
attr iterationvars "$net=three_caches_scenario_3_links, $rep=4, $priceratiovalue=2, $weights=0.7_0.15_0.15, $a=1.2, $ctlg=1e5, $F=nrr, $ttl=1000, $D=fix0.01, $xi=1, $R=lru, $csize=1e3"
attr iterationvars2 "$net=three_caches_scenario_3_links, $rep=4, $priceratiovalue=2, $weights=0.7_0.15_0.15, $a=1.2, $ctlg=1e5, $F=nrr, $ttl=1000, $D=fix0.01, $xi=1, $R=lru, $csize=1e3, $repetition=0"
attr measurement "$net=three_caches_scenario_3_links, $rep=4, $priceratiovalue=2, $weights=0.7_0.15_0.15, $a=1.2, $ctlg=1e5, $F=nrr, $ttl=1000, $D=fix0.01, $xi=1, $R=lru, $csize=1e3"
attr net three_caches_scenario_3_links
attr network networks.${net=three_caches_scenario_3_links}_network
attr priceratiovalue 2
attr processid 10908
attr rep 4
attr repetition 0
attr replication #0
attr resultdir results
attr runnumber 1973
attr seedset 4
attr ttl 1000
attr weights 0.7_0.15_0.15
attr xi 1

scalar . 	a 	1.2
scalar . 	csize 	1e3
scalar . 	ctlg 	1e5
scalar . 	priceratiovalue 	2
scalar . 	rep 	4
scalar . 	ttl 	1000
scalar . 	xi 	1
scalar three_caches_scenario_3_links_network.content_distribution 	repo-0 	4
scalar three_caches_scenario_3_links_network.content_distribution 	repo-1 	5
scalar three_caches_scenario_3_links_network.content_distribution 	repo-2 	6
scalar three_caches_scenario_3_links_network.content_distribution 	client-0 	0
scalar three_caches_scenario_3_links_network.content_distribution 	repo-0_card 	70058
scalar three_caches_scenario_3_links_network.content_distribution 	repo-1_card 	14957
scalar three_caches_scenario_3_links_network.content_distribution 	repo-2_card 	14985
scalar three_caches_scenario_3_links_network.statistics 	p_hit 	0.56458452811492
scalar three_caches_scenario_3_links_network.statistics 	interests 	36617.571428571
scalar three_caches_scenario_3_links_network.statistics 	data 	10821.857142857
scalar three_caches_scenario_3_links_network.statistics 	hdistance 	0.46446253530487
scalar three_caches_scenario_3_links_network.statistics 	avg_time 	0
scalar three_caches_scenario_3_links_network.statistics 	downloads 	180570
scalar three_caches_scenario_3_links_network.statistics 	total_cost 	12216
scalar three_caches_scenario_3_links_network.statistics 	total_replicas 	100000
scalar three_caches_scenario_3_links_network.statistics 	interests_sent 	180570
scalar three_caches_scenario_3_links_network.node[0].core_layer 	interests[0] 	180570
scalar three_caches_scenario_3_links_network.node[0].core_layer 	data[0] 	39899
scalar three_caches_scenario_3_links_network.node[0].core_layer 	repo_int[0] 	35854
scalar three_caches_scenario_3_links_network.node[0].content_store 	p_hit[0] 	0.77903859998892
scalar three_caches_scenario_3_links_network.node[0].content_store 	hits[0] 	140671
scalar three_caches_scenario_3_links_network.node[0].content_store 	misses[0] 	39899
scalar three_caches_scenario_3_links_network.node[0].content_store 	decision_yes[0] 	409
scalar three_caches_scenario_3_links_network.node[0].content_store 	decision_no[0] 	39490
scalar three_caches_scenario_3_links_network.node[1].core_layer 	interests[1] 	27739
scalar three_caches_scenario_3_links_network.node[1].core_layer 	data[1] 	27739
scalar three_caches_scenario_3_links_network.node[1].content_store 	p_hit[1] 	0
scalar three_caches_scenario_3_links_network.node[1].content_store 	hits[1] 	0
scalar three_caches_scenario_3_links_network.node[1].content_store 	misses[1] 	27739
scalar three_caches_scenario_3_links_network.node[1].content_store 	decision_yes[1] 	0
scalar three_caches_scenario_3_links_network.node[1].content_store 	decision_no[1] 	27739
scalar three_caches_scenario_3_links_network.node[2].core_layer 	interests[2] 	6242
scalar three_caches_scenario_3_links_network.node[2].core_layer 	data[2] 	4014
scalar three_caches_scenario_3_links_network.node[2].content_store 	p_hit[2] 	0.35693687920538
scalar three_caches_scenario_3_links_network.node[2].content_store 	hits[2] 	2228
scalar three_caches_scenario_3_links_network.node[2].content_store 	misses[2] 	4014
scalar three_caches_scenario_3_links_network.node[2].content_store 	decision_yes[2] 	60
scalar three_caches_scenario_3_links_network.node[2].content_store 	decision_no[2] 	3954
scalar three_caches_scenario_3_links_network.node[3].core_layer 	interests[3] 	5918
scalar three_caches_scenario_3_links_network.node[3].core_layer 	data[3] 	4101
scalar three_caches_scenario_3_links_network.node[3].content_store 	p_hit[3] 	0.30702940182494
scalar three_caches_scenario_3_links_network.node[3].content_store 	hits[3] 	1817
scalar three_caches_scenario_3_links_network.node[3].content_store 	misses[3] 	4101
scalar three_caches_scenario_3_links_network.node[3].content_store 	decision_yes[3] 	38
scalar three_caches_scenario_3_links_network.node[3].content_store 	decision_no[3] 	4063
scalar three_caches_scenario_3_links_network.node[4].core_layer 	interests[4] 	27739
scalar three_caches_scenario_3_links_network.node[4].core_layer 	repo_load[4] 	27739
scalar three_caches_scenario_3_links_network.node[4].core_layer 	data[4] 	0
scalar three_caches_scenario_3_links_network.node[4].content_store 	p_hit[4] 	0
scalar three_caches_scenario_3_links_network.node[4].content_store 	hits[4] 	0
scalar three_caches_scenario_3_links_network.node[4].content_store 	misses[4] 	27739
scalar three_caches_scenario_3_links_network.node[4].content_store 	decision_yes[4] 	0
scalar three_caches_scenario_3_links_network.node[4].content_store 	decision_no[4] 	27739
scalar three_caches_scenario_3_links_network.node[5].core_layer 	interests[5] 	4014
scalar three_caches_scenario_3_links_network.node[5].core_layer 	repo_load[5] 	4014
scalar three_caches_scenario_3_links_network.node[5].core_layer 	data[5] 	0
scalar three_caches_scenario_3_links_network.node[5].content_store 	p_hit[5] 	0
scalar three_caches_scenario_3_links_network.node[5].content_store 	hits[5] 	0
scalar three_caches_scenario_3_links_network.node[5].content_store 	misses[5] 	4014
scalar three_caches_scenario_3_links_network.node[5].content_store 	decision_yes[5] 	0
scalar three_caches_scenario_3_links_network.node[5].content_store 	decision_no[5] 	4014
scalar three_caches_scenario_3_links_network.node[6].core_layer 	interests[6] 	4101
scalar three_caches_scenario_3_links_network.node[6].core_layer 	repo_load[6] 	4101
scalar three_caches_scenario_3_links_network.node[6].core_layer 	data[6] 	0
scalar three_caches_scenario_3_links_network.node[6].content_store 	p_hit[6] 	0
scalar three_caches_scenario_3_links_network.node[6].content_store 	hits[6] 	0
scalar three_caches_scenario_3_links_network.node[6].content_store 	misses[6] 	4101
scalar three_caches_scenario_3_links_network.node[6].content_store 	decision_yes[6] 	0
scalar three_caches_scenario_3_links_network.node[6].content_store 	decision_no[6] 	4101
scalar three_caches_scenario_3_links_network.client[0] 	hdistance[0] 	0.46446253530487
scalar three_caches_scenario_3_links_network.client[0] 	downloads[0] 	180570
scalar three_caches_scenario_3_links_network.client[0] 	avg_time[0] 	0
scalar three_caches_scenario_3_links_network.client[0] 	interests_sent[0] 	180570
