version 2
run General-90-20140419-16:30:22-7979
attr D lce
attr F nrr
attr R lru
attr a 1
attr configname General
attr csize 10
attr ctlg 10^8
attr datetime 20140419-16:30:22
attr experiment General
attr inifile omnetpp.ini
attr iterationvars "$net=simple_scenario, $rep=1, $priceratiovalue=5, $a=1, $ctlg=10^8, $F=nrr, $ttl=1000, $D=lce, $R=lru, $csize=10"
attr iterationvars2 "$net=simple_scenario, $rep=1, $priceratiovalue=5, $a=1, $ctlg=10^8, $F=nrr, $ttl=1000, $D=lce, $R=lru, $csize=10, $repetition=0"
attr measurement "$net=simple_scenario, $rep=1, $priceratiovalue=5, $a=1, $ctlg=10^8, $F=nrr, $ttl=1000, $D=lce, $R=lru, $csize=10"
attr net simple_scenario
attr network networks.${net=simple_scenario}_network
attr priceratiovalue 5
attr processid 7979
attr rep 1
attr repetition 0
attr replication #0
attr resultdir results
attr runnumber 90
attr seedset 1
attr ttl 1000

scalar . 	a 	1
scalar . 	csize 	10
scalar . 	priceratiovalue 	5
scalar . 	rep 	1
scalar . 	ttl 	1000
scalar simple_scenario_network.content_distribution 	repo-0 	3
scalar simple_scenario_network.content_distribution 	repo-1 	4
scalar simple_scenario_network.content_distribution 	client-0 	0
scalar simple_scenario_network.content_distribution 	repo-0_card 	50003719
scalar simple_scenario_network.content_distribution 	repo-1_card 	49996281
scalar simple_scenario_network.statistics 	p_hit 	0.021312037343727
scalar simple_scenario_network.statistics 	interests 	103856.8
scalar simple_scenario_network.statistics 	data 	68042.6
scalar simple_scenario_network.statistics 	hdistance 	2.8380754002602
scalar simple_scenario_network.statistics 	avg_time 	0.001999068266
scalar simple_scenario_network.statistics 	downloads 	179071
scalar simple_scenario_network.statistics 	total_cost 	86031
scalar simple_scenario_network.node[0].core_layer 	interests[0] 	179071
scalar simple_scenario_network.node[0].core_layer 	data[0] 	172209
scalar simple_scenario_network.node[0].core_layer 	repo_int[0] 	168004
scalar simple_scenario_network.node[0].content_store 	p_hit[0] 	0.038319995979248
scalar simple_scenario_network.node[0].content_store 	hits[0] 	6862
scalar simple_scenario_network.node[0].content_store 	misses[0] 	172209
scalar simple_scenario_network.node[1].core_layer 	interests[1] 	82071
scalar simple_scenario_network.node[1].core_layer 	data[1] 	80957
scalar simple_scenario_network.node[1].content_store 	p_hit[1] 	0.013573613091104
scalar simple_scenario_network.node[1].content_store 	hits[1] 	1114
scalar simple_scenario_network.node[1].content_store 	misses[1] 	80957
scalar simple_scenario_network.node[2].core_layer 	interests[2] 	90138
scalar simple_scenario_network.node[2].core_layer 	data[2] 	87047
scalar simple_scenario_network.node[2].content_store 	p_hit[2] 	0.034291863586944
scalar simple_scenario_network.node[2].content_store 	hits[2] 	3091
scalar simple_scenario_network.node[2].content_store 	misses[2] 	87047
scalar simple_scenario_network.node[3].core_layer 	interests[3] 	80957
scalar simple_scenario_network.node[3].core_layer 	repo_load[3] 	80957
scalar simple_scenario_network.node[3].core_layer 	data[3] 	0
scalar simple_scenario_network.node[3].content_store 	p_hit[3] 	0
scalar simple_scenario_network.node[3].content_store 	hits[3] 	0
scalar simple_scenario_network.node[3].content_store 	misses[3] 	80957
scalar simple_scenario_network.node[4].core_layer 	interests[4] 	87047
scalar simple_scenario_network.node[4].core_layer 	repo_load[4] 	87047
scalar simple_scenario_network.node[4].core_layer 	data[4] 	0
scalar simple_scenario_network.node[4].content_store 	p_hit[4] 	0
scalar simple_scenario_network.node[4].content_store 	hits[4] 	0
scalar simple_scenario_network.node[4].content_store 	misses[4] 	87047
scalar simple_scenario_network.client[0] 	hdistance[0] 	2.8380754002602
scalar simple_scenario_network.client[0] 	downloads[0] 	179071
scalar simple_scenario_network.client[0] 	avg_time[0] 	0.001999068266
