version 2
run General-107-20140419-16:31:56-8001
attr D costprob0.01
attr F nrr
attr R lru
attr a 1.2
attr configname General
attr csize 10
attr ctlg 10^8
attr datetime 20140419-16:31:56
attr experiment General
attr inifile omnetpp.ini
attr iterationvars "$net=simple_scenario, $rep=1, $priceratiovalue=5, $a=1.2, $ctlg=10^8, $F=nrr, $ttl=1000, $D=costprob0.01, $R=lru, $csize=10"
attr iterationvars2 "$net=simple_scenario, $rep=1, $priceratiovalue=5, $a=1.2, $ctlg=10^8, $F=nrr, $ttl=1000, $D=costprob0.01, $R=lru, $csize=10, $repetition=0"
attr measurement "$net=simple_scenario, $rep=1, $priceratiovalue=5, $a=1.2, $ctlg=10^8, $F=nrr, $ttl=1000, $D=costprob0.01, $R=lru, $csize=10"
attr net simple_scenario
attr network networks.${net=simple_scenario}_network
attr priceratiovalue 5
attr processid 8001
attr rep 1
attr repetition 0
attr replication #0
attr resultdir results
attr runnumber 107
attr seedset 1
attr ttl 1000

scalar . 	a 	1.2
scalar . 	csize 	10
scalar . 	priceratiovalue 	5
scalar . 	rep 	1
scalar . 	ttl 	1000
scalar simple_scenario_network.content_distribution 	repo-0 	3
scalar simple_scenario_network.content_distribution 	repo-1 	4
scalar simple_scenario_network.content_distribution 	client-0 	0
scalar simple_scenario_network.content_distribution 	repo-0_card 	50003719
scalar simple_scenario_network.content_distribution 	repo-1_card 	49996281
scalar simple_scenario_network.statistics 	p_hit 	0.23043325567476
scalar simple_scenario_network.statistics 	interests 	80866.8
scalar simple_scenario_network.statistics 	data 	44960.2
scalar simple_scenario_network.statistics 	hdistance 	1.7331744024775
scalar simple_scenario_network.statistics 	avg_time 	0.001990196871
scalar simple_scenario_network.statistics 	downloads 	179533
scalar simple_scenario_network.statistics 	total_cost 	42823
scalar simple_scenario_network.node[0].core_layer 	interests[0] 	179533
scalar simple_scenario_network.node[0].core_layer 	data[0] 	138440
scalar simple_scenario_network.node[0].core_layer 	repo_int[0] 	86361
scalar simple_scenario_network.node[0].content_store 	p_hit[0] 	0.22888828237706
scalar simple_scenario_network.node[0].content_store 	hits[0] 	41093
scalar simple_scenario_network.node[0].content_store 	misses[0] 	138440
scalar simple_scenario_network.node[1].core_layer 	interests[1] 	52356
scalar simple_scenario_network.node[1].core_layer 	data[1] 	43716
scalar simple_scenario_network.node[1].content_store 	p_hit[1] 	0.16502406600963
scalar simple_scenario_network.node[1].content_store 	hits[1] 	8640
scalar simple_scenario_network.node[1].content_store 	misses[1] 	43716
scalar simple_scenario_network.node[2].core_layer 	interests[2] 	86084
scalar simple_scenario_network.node[2].core_layer 	data[2] 	42645
scalar simple_scenario_network.node[2].content_store 	p_hit[2] 	0.50461177454579
scalar simple_scenario_network.node[2].content_store 	hits[2] 	43439
scalar simple_scenario_network.node[2].content_store 	misses[2] 	42645
scalar simple_scenario_network.node[3].core_layer 	interests[3] 	43716
scalar simple_scenario_network.node[3].core_layer 	repo_load[3] 	43716
scalar simple_scenario_network.node[3].core_layer 	data[3] 	0
scalar simple_scenario_network.node[3].content_store 	p_hit[3] 	0
scalar simple_scenario_network.node[3].content_store 	hits[3] 	0
scalar simple_scenario_network.node[3].content_store 	misses[3] 	43716
scalar simple_scenario_network.node[4].core_layer 	interests[4] 	42645
scalar simple_scenario_network.node[4].core_layer 	repo_load[4] 	42645
scalar simple_scenario_network.node[4].core_layer 	data[4] 	0
scalar simple_scenario_network.node[4].content_store 	p_hit[4] 	0
scalar simple_scenario_network.node[4].content_store 	hits[4] 	0
scalar simple_scenario_network.node[4].content_store 	misses[4] 	42645
scalar simple_scenario_network.client[0] 	hdistance[0] 	1.7331744024775
scalar simple_scenario_network.client[0] 	downloads[0] 	179533
scalar simple_scenario_network.client[0] 	avg_time[0] 	0.001990196871
