version 2
run General-1-20140625-17:43:29-12031
attr D costprobprodcorr0.01
attr F nrr
attr R lru
attr a 1
attr configname General
attr csize 1e3
attr ctlg 1e5
attr datetime 20140625-17:43:29
attr experiment General
attr inifile omnetpp.ini
attr iterationvars "$net=geant_cost, $rep=1, $priceratiovalue=10, $weights=0.333_0.333_0.334, $lambda=100, $a=1, $ctlg=1e5, $F=nrr, $ttl=1000, $D=costprobprodcorr0.01, $xi=0.025, $R=lru, $csize=1e3, $pricebits=0, $mytime=1800"
attr iterationvars2 "$net=geant_cost, $rep=1, $priceratiovalue=10, $weights=0.333_0.333_0.334, $lambda=100, $a=1, $ctlg=1e5, $F=nrr, $ttl=1000, $D=costprobprodcorr0.01, $xi=0.025, $R=lru, $csize=1e3, $pricebits=0, $mytime=1800, $repetition=0"
attr lambda 100
attr measurement "$net=geant_cost, $rep=1, $priceratiovalue=10, $weights=0.333_0.333_0.334, $lambda=100, $a=1, $ctlg=1e5, $F=nrr, $ttl=1000, $D=costprobprodcorr0.01, $xi=0.025, $R=lru, $csize=1e3, $pricebits=0, $mytime=1800"
attr mytime 1800
attr net geant_cost
attr network "networks.${net=geant_cost, abilene_cost}_network"
attr pricebits 0
attr priceratiovalue 10
attr processid 12031
attr rep 1
attr repetition 0
attr replication #0
attr resultdir results
attr runnumber 1
attr seedset 1
attr ttl 1000
attr weights 0.333_0.333_0.334
attr xi 0.025

scalar . 	a 	1
scalar . 	csize 	1e3
scalar . 	ctlg 	1e5
scalar . 	lambda 	100
scalar . 	mytime 	1800
scalar . 	pricebits 	0
scalar . 	priceratiovalue 	10
scalar . 	rep 	1
scalar . 	ttl 	1000
scalar . 	xi 	0.025
scalar geant_cost_network.content_distribution 	repo-0 	22
scalar geant_cost_network.content_distribution 	repo-1 	23
scalar geant_cost_network.content_distribution 	repo-2 	24
scalar geant_cost_network.content_distribution 	client-0 	20
scalar geant_cost_network.content_distribution 	client-1 	10
scalar geant_cost_network.content_distribution 	client-2 	12
scalar geant_cost_network.content_distribution 	client-3 	9
scalar geant_cost_network.content_distribution 	client-4 	5
scalar geant_cost_network.content_distribution 	repo-0_card 	33396
scalar geant_cost_network.content_distribution 	repo-1_card 	33039
scalar geant_cost_network.content_distribution 	repo-2_card 	33565
scalar geant_cost_network.statistics 	repo_popularity[0] 	0.28686251265602
scalar geant_cost_network.statistics 	repo_popularity[1] 	0.2886063426465
scalar geant_cost_network.statistics 	repo_popularity[2] 	0.42453114469748
scalar geant_cost_network.statistics 	stabilization_time 	36060
scalar geant_cost_network.node[7].face$o[4].channel 	price[7] 	0
scalar geant_cost_network.node[7].face$o[4].channel 	represented_price[7] 	0
scalar geant_cost_network.node[8].face$o[3].channel 	price[8] 	0
scalar geant_cost_network.node[8].face$o[3].channel 	represented_price[8] 	0
scalar geant_cost_network.node[21].face$o[5].channel 	price[21] 	0
scalar geant_cost_network.node[21].face$o[5].channel 	represented_price[21] 	0
scalar geant_cost_network.node[22].face$o[1].channel 	price[22] 	0
scalar geant_cost_network.node[22].face$o[1].channel 	represented_price[22] 	0
scalar geant_cost_network.node[23].face$o[1].channel 	price[23] 	1
scalar geant_cost_network.node[23].face$o[1].channel 	represented_price[23] 	1
scalar geant_cost_network.node[24].face$o[1].channel 	price[24] 	10
scalar geant_cost_network.node[24].face$o[1].channel 	represented_price[24] 	10
scalar geant_cost_network.statistics 	p_hit 	0.096593940798796
scalar geant_cost_network.statistics 	interests 	146332.16
scalar geant_cost_network.statistics 	data 	110318.6
scalar geant_cost_network.statistics 	hdistance 	3.7290403185177
scalar geant_cost_network.statistics 	avg_time 	0.008606674819
scalar geant_cost_network.statistics 	downloads 	888986
scalar geant_cost_network.statistics 	total_cost 	1495505
scalar geant_cost_network.statistics 	total_replicas 	100000
scalar geant_cost_network.statistics 	inner_hit 	0.41063188846619
scalar geant_cost_network.statistics 	interests_sent 	900331
scalar geant_cost_network.node[0].core_layer 	interests[0] 	0
scalar geant_cost_network.node[0].core_layer 	data[0] 	0
scalar geant_cost_network.node[0].core_layer 	repo_int[0] 	523940
scalar geant_cost_network.node[0].content_store 	p_hit[0] 	-nan
scalar geant_cost_network.node[0].content_store 	hits[0] 	0
scalar geant_cost_network.node[0].content_store 	misses[0] 	0
scalar geant_cost_network.node[0].content_store 	decision_yes[0] 	0
scalar geant_cost_network.node[0].content_store 	decision_no[0] 	0
scalar geant_cost_network.node[0].content_store 	decision_ratio[0] 	0
scalar geant_cost_network.node[0].content_store 	correction_factor[0] 	0.014560475784388
scalar geant_cost_network.node[0].content_store 	xi[0] 	0.025
scalar geant_cost_network.node[1].core_layer 	interests[1] 	0
scalar geant_cost_network.node[1].core_layer 	data[1] 	0
scalar geant_cost_network.node[1].content_store 	p_hit[1] 	-nan
scalar geant_cost_network.node[1].content_store 	hits[1] 	0
scalar geant_cost_network.node[1].content_store 	misses[1] 	0
scalar geant_cost_network.node[1].content_store 	decision_yes[1] 	0
scalar geant_cost_network.node[1].content_store 	decision_no[1] 	0
scalar geant_cost_network.node[1].content_store 	decision_ratio[1] 	0
scalar geant_cost_network.node[1].content_store 	correction_factor[1] 	0.014560475784388
scalar geant_cost_network.node[1].content_store 	xi[1] 	0.025
scalar geant_cost_network.node[2].core_layer 	interests[2] 	0
scalar geant_cost_network.node[2].core_layer 	data[2] 	0
scalar geant_cost_network.node[2].content_store 	p_hit[2] 	-nan
scalar geant_cost_network.node[2].content_store 	hits[2] 	0
scalar geant_cost_network.node[2].content_store 	misses[2] 	0
scalar geant_cost_network.node[2].content_store 	decision_yes[2] 	0
scalar geant_cost_network.node[2].content_store 	decision_no[2] 	0
scalar geant_cost_network.node[2].content_store 	decision_ratio[2] 	0
scalar geant_cost_network.node[2].content_store 	correction_factor[2] 	0.014560475784388
scalar geant_cost_network.node[2].content_store 	xi[2] 	0.025
scalar geant_cost_network.node[3].core_layer 	interests[3] 	263581
scalar geant_cost_network.node[3].core_layer 	data[3] 	238521
scalar geant_cost_network.node[3].content_store 	p_hit[3] 	0.095059962592144
scalar geant_cost_network.node[3].content_store 	hits[3] 	25056
scalar geant_cost_network.node[3].content_store 	misses[3] 	238525
scalar geant_cost_network.node[3].content_store 	decision_yes[3] 	1202
scalar geant_cost_network.node[3].content_store 	decision_no[3] 	237319
scalar geant_cost_network.node[3].content_store 	decision_ratio[3] 	0.0050393885653674
scalar geant_cost_network.node[3].content_store 	correction_factor[3] 	0.014560475784388
scalar geant_cost_network.node[3].content_store 	xi[3] 	0.025
scalar geant_cost_network.node[4].core_layer 	interests[4] 	311538
scalar geant_cost_network.node[4].core_layer 	data[4] 	295100
scalar geant_cost_network.node[4].content_store 	p_hit[4] 	0.052552176620509
scalar geant_cost_network.node[4].content_store 	hits[4] 	16372
scalar geant_cost_network.node[4].content_store 	misses[4] 	295166
scalar geant_cost_network.node[4].content_store 	decision_yes[4] 	1707
scalar geant_cost_network.node[4].content_store 	decision_no[4] 	293393
scalar geant_cost_network.node[4].content_store 	decision_ratio[4] 	0.0057844798373433
scalar geant_cost_network.node[4].content_store 	correction_factor[4] 	0.014560475784388
scalar geant_cost_network.node[4].content_store 	xi[4] 	0.025
scalar geant_cost_network.node[5].core_layer 	interests[5] 	203356
scalar geant_cost_network.node[5].core_layer 	data[5] 	177710
scalar geant_cost_network.node[5].content_store 	p_hit[5] 	0.11594445209386
scalar geant_cost_network.node[5].content_store 	hits[5] 	23578
scalar geant_cost_network.node[5].content_store 	misses[5] 	179778
scalar geant_cost_network.node[5].content_store 	decision_yes[5] 	787
scalar geant_cost_network.node[5].content_store 	decision_no[5] 	176923
scalar geant_cost_network.node[5].content_store 	decision_ratio[5] 	0.0044285633897924
scalar geant_cost_network.node[5].content_store 	correction_factor[5] 	0.014560475784388
scalar geant_cost_network.node[5].content_store 	xi[5] 	0.025
scalar geant_cost_network.node[6].core_layer 	interests[6] 	96381
scalar geant_cost_network.node[6].core_layer 	data[6] 	83837
scalar geant_cost_network.node[6].content_store 	p_hit[6] 	0.13015013332503
scalar geant_cost_network.node[6].content_store 	hits[6] 	12544
scalar geant_cost_network.node[6].content_store 	misses[6] 	83837
scalar geant_cost_network.node[6].content_store 	decision_yes[6] 	366
scalar geant_cost_network.node[6].content_store 	decision_no[6] 	83471
scalar geant_cost_network.node[6].content_store 	decision_ratio[6] 	0.0043656142276083
scalar geant_cost_network.node[6].content_store 	correction_factor[6] 	0.014560475784388
scalar geant_cost_network.node[6].content_store 	xi[6] 	0.025
scalar geant_cost_network.node[7].core_layer 	interests[7] 	345344
scalar geant_cost_network.node[7].core_layer 	data[7] 	329276
scalar geant_cost_network.node[7].content_store 	p_hit[7] 	0.046513042068199
scalar geant_cost_network.node[7].content_store 	hits[7] 	16063
scalar geant_cost_network.node[7].content_store 	misses[7] 	329281
scalar geant_cost_network.node[7].content_store 	decision_yes[7] 	763
scalar geant_cost_network.node[7].content_store 	decision_no[7] 	328513
scalar geant_cost_network.node[7].content_store 	decision_ratio[7] 	0.0023172050194973
scalar geant_cost_network.node[7].content_store 	correction_factor[7] 	0.014560475784388
scalar geant_cost_network.node[7].content_store 	xi[7] 	0.025
scalar geant_cost_network.node[8].core_layer 	interests[8] 	284234
scalar geant_cost_network.node[8].core_layer 	data[8] 	252222
scalar geant_cost_network.node[8].content_store 	p_hit[8] 	0.11262551278172
scalar geant_cost_network.node[8].content_store 	hits[8] 	32012
scalar geant_cost_network.node[8].content_store 	misses[8] 	252222
scalar geant_cost_network.node[8].content_store 	decision_yes[8] 	1912
scalar geant_cost_network.node[8].content_store 	decision_no[8] 	250310
scalar geant_cost_network.node[8].content_store 	decision_ratio[8] 	0.0075806234190515
scalar geant_cost_network.node[8].content_store 	correction_factor[8] 	0.014560475784388
scalar geant_cost_network.node[8].content_store 	xi[8] 	0.025
scalar geant_cost_network.node[9].core_layer 	interests[9] 	417319
scalar geant_cost_network.node[9].core_layer 	data[9] 	369272
scalar geant_cost_network.node[9].content_store 	p_hit[9] 	0.097532103738387
scalar geant_cost_network.node[9].content_store 	hits[9] 	40702
scalar geant_cost_network.node[9].content_store 	misses[9] 	376617
scalar geant_cost_network.node[9].content_store 	decision_yes[9] 	2108
scalar geant_cost_network.node[9].content_store 	decision_no[9] 	367164
scalar geant_cost_network.node[9].content_store 	decision_ratio[9] 	0.0057085292142377
scalar geant_cost_network.node[9].content_store 	correction_factor[9] 	0.014560475784388
scalar geant_cost_network.node[9].content_store 	xi[9] 	0.025
scalar geant_cost_network.node[10].core_layer 	interests[10] 	191508
scalar geant_cost_network.node[10].core_layer 	data[10] 	173394
scalar geant_cost_network.node[10].content_store 	p_hit[10] 	0.078466695908265
scalar geant_cost_network.node[10].content_store 	hits[10] 	15027
scalar geant_cost_network.node[10].content_store 	misses[10] 	176481
scalar geant_cost_network.node[10].content_store 	decision_yes[10] 	795
scalar geant_cost_network.node[10].content_store 	decision_no[10] 	172599
scalar geant_cost_network.node[10].content_store 	decision_ratio[10] 	0.0045849337347313
scalar geant_cost_network.node[10].content_store 	correction_factor[10] 	0.014560475784388
scalar geant_cost_network.node[10].content_store 	xi[10] 	0.025
scalar geant_cost_network.node[11].core_layer 	interests[11] 	0
scalar geant_cost_network.node[11].core_layer 	data[11] 	0
scalar geant_cost_network.node[11].content_store 	p_hit[11] 	-nan
scalar geant_cost_network.node[11].content_store 	hits[11] 	0
scalar geant_cost_network.node[11].content_store 	misses[11] 	0
scalar geant_cost_network.node[11].content_store 	decision_yes[11] 	0
scalar geant_cost_network.node[11].content_store 	decision_no[11] 	0
scalar geant_cost_network.node[11].content_store 	decision_ratio[11] 	0
scalar geant_cost_network.node[11].content_store 	correction_factor[11] 	0.014560475784388
scalar geant_cost_network.node[11].content_store 	xi[11] 	0.025
scalar geant_cost_network.node[12].core_layer 	interests[12] 	335873
scalar geant_cost_network.node[12].core_layer 	data[12] 	309464
scalar geant_cost_network.node[12].content_store 	p_hit[12] 	0.049747970214932
scalar geant_cost_network.node[12].content_store 	hits[12] 	16709
scalar geant_cost_network.node[12].content_store 	misses[12] 	319164
scalar geant_cost_network.node[12].content_store 	decision_yes[12] 	1616
scalar geant_cost_network.node[12].content_store 	decision_no[12] 	307848
scalar geant_cost_network.node[12].content_store 	decision_ratio[12] 	0.0052219321148825
scalar geant_cost_network.node[12].content_store 	correction_factor[12] 	0.014560475784388
scalar geant_cost_network.node[12].content_store 	xi[12] 	0.025
scalar geant_cost_network.node[13].core_layer 	interests[13] 	17750
scalar geant_cost_network.node[13].core_layer 	data[13] 	17749
scalar geant_cost_network.node[13].content_store 	p_hit[13] 	0
scalar geant_cost_network.node[13].content_store 	hits[13] 	0
scalar geant_cost_network.node[13].content_store 	misses[13] 	17750
scalar geant_cost_network.node[13].content_store 	decision_yes[13] 	0
scalar geant_cost_network.node[13].content_store 	decision_no[13] 	17749
scalar geant_cost_network.node[13].content_store 	decision_ratio[13] 	0
scalar geant_cost_network.node[13].content_store 	correction_factor[13] 	0.014560475784388
scalar geant_cost_network.node[13].content_store 	xi[13] 	0.025
scalar geant_cost_network.node[14].core_layer 	interests[14] 	99029
scalar geant_cost_network.node[14].core_layer 	data[14] 	62038
scalar geant_cost_network.node[14].content_store 	p_hit[14] 	0.37353704470408
scalar geant_cost_network.node[14].content_store 	hits[14] 	36991
scalar geant_cost_network.node[14].content_store 	misses[14] 	62038
scalar geant_cost_network.node[14].content_store 	decision_yes[14] 	450
scalar geant_cost_network.node[14].content_store 	decision_no[14] 	61588
scalar geant_cost_network.node[14].content_store 	decision_ratio[14] 	0.0072536187497985
scalar geant_cost_network.node[14].content_store 	correction_factor[14] 	0.014560475784388
scalar geant_cost_network.node[14].content_store 	xi[14] 	0.025
scalar geant_cost_network.node[15].core_layer 	interests[15] 	0
scalar geant_cost_network.node[15].core_layer 	data[15] 	0
scalar geant_cost_network.node[15].content_store 	p_hit[15] 	-nan
scalar geant_cost_network.node[15].content_store 	hits[15] 	0
scalar geant_cost_network.node[15].content_store 	misses[15] 	0
scalar geant_cost_network.node[15].content_store 	decision_yes[15] 	0
scalar geant_cost_network.node[15].content_store 	decision_no[15] 	0
scalar geant_cost_network.node[15].content_store 	decision_ratio[15] 	0
scalar geant_cost_network.node[15].content_store 	correction_factor[15] 	0.014560475784388
scalar geant_cost_network.node[15].content_store 	xi[15] 	0.025
scalar geant_cost_network.node[16].core_layer 	interests[16] 	0
scalar geant_cost_network.node[16].core_layer 	data[16] 	0
scalar geant_cost_network.node[16].content_store 	p_hit[16] 	-nan
scalar geant_cost_network.node[16].content_store 	hits[16] 	0
scalar geant_cost_network.node[16].content_store 	misses[16] 	0
scalar geant_cost_network.node[16].content_store 	decision_yes[16] 	0
scalar geant_cost_network.node[16].content_store 	decision_no[16] 	0
scalar geant_cost_network.node[16].content_store 	decision_ratio[16] 	0
scalar geant_cost_network.node[16].content_store 	correction_factor[16] 	0.014560475784388
scalar geant_cost_network.node[16].content_store 	xi[16] 	0.025
scalar geant_cost_network.node[17].core_layer 	interests[17] 	0
scalar geant_cost_network.node[17].core_layer 	data[17] 	0
scalar geant_cost_network.node[17].content_store 	p_hit[17] 	-nan
scalar geant_cost_network.node[17].content_store 	hits[17] 	0
scalar geant_cost_network.node[17].content_store 	misses[17] 	0
scalar geant_cost_network.node[17].content_store 	decision_yes[17] 	0
scalar geant_cost_network.node[17].content_store 	decision_no[17] 	0
scalar geant_cost_network.node[17].content_store 	decision_ratio[17] 	0
scalar geant_cost_network.node[17].content_store 	correction_factor[17] 	0.014560475784388
scalar geant_cost_network.node[17].content_store 	xi[17] 	0.025
scalar geant_cost_network.node[18].core_layer 	interests[18] 	148644
scalar geant_cost_network.node[18].core_layer 	data[18] 	141279
scalar geant_cost_network.node[18].content_store 	p_hit[18] 	0.049379726056888
scalar geant_cost_network.node[18].content_store 	hits[18] 	7340
scalar geant_cost_network.node[18].content_store 	misses[18] 	141304
scalar geant_cost_network.node[18].content_store 	decision_yes[18] 	367
scalar geant_cost_network.node[18].content_store 	decision_no[18] 	140912
scalar geant_cost_network.node[18].content_store 	decision_ratio[18] 	0.0025976967560642
scalar geant_cost_network.node[18].content_store 	correction_factor[18] 	0.014560475784388
scalar geant_cost_network.node[18].content_store 	xi[18] 	0.025
scalar geant_cost_network.node[19].core_layer 	interests[19] 	0
scalar geant_cost_network.node[19].core_layer 	data[19] 	0
scalar geant_cost_network.node[19].content_store 	p_hit[19] 	-nan
scalar geant_cost_network.node[19].content_store 	hits[19] 	0
scalar geant_cost_network.node[19].content_store 	misses[19] 	0
scalar geant_cost_network.node[19].content_store 	decision_yes[19] 	0
scalar geant_cost_network.node[19].content_store 	decision_no[19] 	0
scalar geant_cost_network.node[19].content_store 	decision_ratio[19] 	0
scalar geant_cost_network.node[19].content_store 	correction_factor[19] 	0.014560475784388
scalar geant_cost_network.node[19].content_store 	xi[19] 	0.025
scalar geant_cost_network.node[20].core_layer 	interests[20] 	201533
scalar geant_cost_network.node[20].core_layer 	data[20] 	171585
scalar geant_cost_network.node[20].content_store 	p_hit[20] 	0.14498866190649
scalar geant_cost_network.node[20].content_store 	hits[20] 	29220
scalar geant_cost_network.node[20].content_store 	misses[20] 	172313
scalar geant_cost_network.node[20].content_store 	decision_yes[20] 	794
scalar geant_cost_network.node[20].content_store 	decision_no[20] 	170791
scalar geant_cost_network.node[20].content_store 	decision_ratio[20] 	0.0046274441239036
scalar geant_cost_network.node[20].content_store 	correction_factor[20] 	0.014560475784388
scalar geant_cost_network.node[20].content_store 	xi[20] 	0.025
scalar geant_cost_network.node[21].core_layer 	interests[21] 	218274
scalar geant_cost_network.node[21].core_layer 	data[21] 	136518
scalar geant_cost_network.node[21].content_store 	p_hit[21] 	0.37455674977322
scalar geant_cost_network.node[21].content_store 	hits[21] 	81756
scalar geant_cost_network.node[21].content_store 	misses[21] 	136518
scalar geant_cost_network.node[21].content_store 	decision_yes[21] 	2168
scalar geant_cost_network.node[21].content_store 	decision_no[21] 	134350
scalar geant_cost_network.node[21].content_store 	decision_ratio[21] 	0.015880689725897
scalar geant_cost_network.node[21].content_store 	correction_factor[21] 	0.014560475784388
scalar geant_cost_network.node[21].content_store 	xi[21] 	0.025
scalar geant_cost_network.node[22].core_layer 	interests[22] 	257097
scalar geant_cost_network.node[22].core_layer 	repo_load[22] 	257097
scalar geant_cost_network.node[22].core_layer 	data[22] 	0
scalar geant_cost_network.node[22].content_store 	p_hit[22] 	0
scalar geant_cost_network.node[22].content_store 	hits[22] 	0
scalar geant_cost_network.node[22].content_store 	misses[22] 	257097
scalar geant_cost_network.node[22].content_store 	decision_yes[22] 	0
scalar geant_cost_network.node[22].content_store 	decision_no[22] 	257097
scalar geant_cost_network.node[22].content_store 	decision_ratio[22] 	0
scalar geant_cost_network.node[23].core_layer 	interests[23] 	130325
scalar geant_cost_network.node[23].core_layer 	repo_load[23] 	130325
scalar geant_cost_network.node[23].core_layer 	data[23] 	0
scalar geant_cost_network.node[23].content_store 	p_hit[23] 	0
scalar geant_cost_network.node[23].content_store 	hits[23] 	0
scalar geant_cost_network.node[23].content_store 	misses[23] 	130325
scalar geant_cost_network.node[23].content_store 	decision_yes[23] 	0
scalar geant_cost_network.node[23].content_store 	decision_no[23] 	130325
scalar geant_cost_network.node[23].content_store 	decision_ratio[23] 	0
scalar geant_cost_network.node[24].core_layer 	interests[24] 	136518
scalar geant_cost_network.node[24].core_layer 	repo_load[24] 	136518
scalar geant_cost_network.node[24].core_layer 	data[24] 	0
scalar geant_cost_network.node[24].content_store 	p_hit[24] 	0
scalar geant_cost_network.node[24].content_store 	hits[24] 	0
scalar geant_cost_network.node[24].content_store 	misses[24] 	136518
scalar geant_cost_network.node[24].content_store 	decision_yes[24] 	0
scalar geant_cost_network.node[24].content_store 	decision_no[24] 	136518
scalar geant_cost_network.node[24].content_store 	decision_ratio[24] 	0
scalar geant_cost_network.client[5] 	hdistance[5] 	3.2775683582761
scalar geant_cost_network.client[5] 	downloads[5] 	177740
scalar geant_cost_network.client[5] 	avg_time[5] 	0.009862404411
scalar geant_cost_network.client[5] 	interests_sent[5] 	179797
scalar geant_cost_network.client[9] 	hdistance[9] 	3.5186728551908
scalar geant_cost_network.client[9] 	downloads[9] 	177102
scalar geant_cost_network.client[9] 	avg_time[9] 	0.007876924947
scalar geant_cost_network.client[9] 	interests_sent[9] 	179943
scalar geant_cost_network.client[10] 	hdistance[10] 	4.4871138679863
scalar geant_cost_network.client[10] 	downloads[10] 	177012
scalar geant_cost_network.client[10] 	avg_time[10] 	0.009668915893
scalar geant_cost_network.client[10] 	interests_sent[10] 	180099
scalar geant_cost_network.client[12] 	hdistance[12] 	3.6767898696428
scalar geant_cost_network.client[12] 	downloads[12] 	177052
scalar geant_cost_network.client[12] 	avg_time[12] 	0.008527351123
scalar geant_cost_network.client[12] 	interests_sent[12] 	179684
scalar geant_cost_network.client[20] 	hdistance[20] 	3.6850566414927
scalar geant_cost_network.client[20] 	downloads[20] 	180080
scalar geant_cost_network.client[20] 	avg_time[20] 	0.007097777724
scalar geant_cost_network.client[20] 	interests_sent[20] 	180808
