version 2
run General-962-20140502-02:54:12-9864
attr D costprob0.5
attr F nrr
attr R lru
attr a 1.2
attr configname General
attr csize 1e3
attr ctlg 1e5
attr datetime 20140502-02:54:12
attr experiment General
attr inifile omnetpp.ini
attr iterationvars "$net=three_caches_scenario_3_links, $rep=2, $priceratiovalue=5, $weights=0.7_0.15_0.15, $a=1.2, $ctlg=1e5, $F=nrr, $ttl=1000, $D=costprob0.5, $xi=1, $R=lru, $csize=1e3"
attr iterationvars2 "$net=three_caches_scenario_3_links, $rep=2, $priceratiovalue=5, $weights=0.7_0.15_0.15, $a=1.2, $ctlg=1e5, $F=nrr, $ttl=1000, $D=costprob0.5, $xi=1, $R=lru, $csize=1e3, $repetition=0"
attr measurement "$net=three_caches_scenario_3_links, $rep=2, $priceratiovalue=5, $weights=0.7_0.15_0.15, $a=1.2, $ctlg=1e5, $F=nrr, $ttl=1000, $D=costprob0.5, $xi=1, $R=lru, $csize=1e3"
attr net three_caches_scenario_3_links
attr network networks.${net=three_caches_scenario_3_links}_network
attr priceratiovalue 5
attr processid 9864
attr rep 2
attr repetition 0
attr replication #0
attr resultdir results
attr runnumber 962
attr seedset 2
attr ttl 1000
attr weights 0.7_0.15_0.15
attr xi 1

scalar . 	a 	1.2
scalar . 	csize 	1e3
scalar . 	ctlg 	1e5
scalar . 	priceratiovalue 	5
scalar . 	rep 	2
scalar . 	ttl 	1000
scalar . 	xi 	1
scalar three_caches_scenario_3_links_network.content_distribution 	repo-0 	4
scalar three_caches_scenario_3_links_network.content_distribution 	repo-1 	5
scalar three_caches_scenario_3_links_network.content_distribution 	repo-2 	6
scalar three_caches_scenario_3_links_network.content_distribution 	client-0 	0
scalar three_caches_scenario_3_links_network.content_distribution 	repo-0_card 	69917
scalar three_caches_scenario_3_links_network.content_distribution 	repo-1_card 	15037
scalar three_caches_scenario_3_links_network.content_distribution 	repo-2_card 	15046
scalar three_caches_scenario_3_links_network.statistics 	p_hit 	0.090134617190368
scalar three_caches_scenario_3_links_network.statistics 	interests 	66941.142857143
scalar three_caches_scenario_3_links_network.statistics 	data 	41242.142857143
scalar three_caches_scenario_3_links_network.statistics 	hdistance 	1.6511481825307
scalar three_caches_scenario_3_links_network.statistics 	avg_time 	0
scalar three_caches_scenario_3_links_network.statistics 	downloads 	179893
scalar three_caches_scenario_3_links_network.statistics 	total_cost 	25363
scalar three_caches_scenario_3_links_network.statistics 	total_replicas 	100000
scalar three_caches_scenario_3_links_network.statistics 	interests_sent 	179893
scalar three_caches_scenario_3_links_network.node[0].core_layer 	interests[0] 	179893
scalar three_caches_scenario_3_links_network.node[0].core_layer 	data[0] 	151038
scalar three_caches_scenario_3_links_network.node[0].core_layer 	repo_int[0] 	137657
scalar three_caches_scenario_3_links_network.node[0].content_store 	p_hit[0] 	0.16040090498241
scalar three_caches_scenario_3_links_network.node[0].content_store 	hits[0] 	28855
scalar three_caches_scenario_3_links_network.node[0].content_store 	misses[0] 	151038
scalar three_caches_scenario_3_links_network.node[0].content_store 	decision_yes[0] 	6513
scalar three_caches_scenario_3_links_network.node[0].content_store 	decision_no[0] 	144525
scalar three_caches_scenario_3_links_network.node[1].core_layer 	interests[1] 	129322
scalar three_caches_scenario_3_links_network.node[1].core_layer 	data[1] 	129322
scalar three_caches_scenario_3_links_network.node[1].content_store 	p_hit[1] 	0
scalar three_caches_scenario_3_links_network.node[1].content_store 	hits[1] 	0
scalar three_caches_scenario_3_links_network.node[1].content_store 	misses[1] 	129322
scalar three_caches_scenario_3_links_network.node[1].content_store 	decision_yes[1] 	0
scalar three_caches_scenario_3_links_network.node[1].content_store 	decision_no[1] 	129322
scalar three_caches_scenario_3_links_network.node[2].core_layer 	interests[2] 	16133
scalar three_caches_scenario_3_links_network.node[2].core_layer 	data[2] 	4078
scalar three_caches_scenario_3_links_network.node[2].content_store 	p_hit[2] 	0.74722618235914
scalar three_caches_scenario_3_links_network.node[2].content_store 	hits[2] 	12055
scalar three_caches_scenario_3_links_network.node[2].content_store 	misses[2] 	4078
scalar three_caches_scenario_3_links_network.node[2].content_store 	decision_yes[2] 	2279
scalar three_caches_scenario_3_links_network.node[2].content_store 	decision_no[2] 	1799
scalar three_caches_scenario_3_links_network.node[3].core_layer 	interests[3] 	5583
scalar three_caches_scenario_3_links_network.node[3].core_layer 	data[3] 	4257
scalar three_caches_scenario_3_links_network.node[3].content_store 	p_hit[3] 	0.23750671681891
scalar three_caches_scenario_3_links_network.node[3].content_store 	hits[3] 	1326
scalar three_caches_scenario_3_links_network.node[3].content_store 	misses[3] 	4257
scalar three_caches_scenario_3_links_network.node[3].content_store 	decision_yes[3] 	4257
scalar three_caches_scenario_3_links_network.node[3].content_store 	decision_no[3] 	0
scalar three_caches_scenario_3_links_network.node[4].core_layer 	interests[4] 	129322
scalar three_caches_scenario_3_links_network.node[4].core_layer 	repo_load[4] 	129322
scalar three_caches_scenario_3_links_network.node[4].core_layer 	data[4] 	0
scalar three_caches_scenario_3_links_network.node[4].content_store 	p_hit[4] 	0
scalar three_caches_scenario_3_links_network.node[4].content_store 	hits[4] 	0
scalar three_caches_scenario_3_links_network.node[4].content_store 	misses[4] 	129322
scalar three_caches_scenario_3_links_network.node[4].content_store 	decision_yes[4] 	0
scalar three_caches_scenario_3_links_network.node[4].content_store 	decision_no[4] 	129322
scalar three_caches_scenario_3_links_network.node[5].core_layer 	interests[5] 	4078
scalar three_caches_scenario_3_links_network.node[5].core_layer 	repo_load[5] 	4078
scalar three_caches_scenario_3_links_network.node[5].core_layer 	data[5] 	0
scalar three_caches_scenario_3_links_network.node[5].content_store 	p_hit[5] 	0
scalar three_caches_scenario_3_links_network.node[5].content_store 	hits[5] 	0
scalar three_caches_scenario_3_links_network.node[5].content_store 	misses[5] 	4078
scalar three_caches_scenario_3_links_network.node[5].content_store 	decision_yes[5] 	0
scalar three_caches_scenario_3_links_network.node[5].content_store 	decision_no[5] 	4078
scalar three_caches_scenario_3_links_network.node[6].core_layer 	interests[6] 	4257
scalar three_caches_scenario_3_links_network.node[6].core_layer 	repo_load[6] 	4257
scalar three_caches_scenario_3_links_network.node[6].core_layer 	data[6] 	0
scalar three_caches_scenario_3_links_network.node[6].content_store 	p_hit[6] 	0
scalar three_caches_scenario_3_links_network.node[6].content_store 	hits[6] 	0
scalar three_caches_scenario_3_links_network.node[6].content_store 	misses[6] 	4257
scalar three_caches_scenario_3_links_network.node[6].content_store 	decision_yes[6] 	0
scalar three_caches_scenario_3_links_network.node[6].content_store 	decision_no[6] 	4257
scalar three_caches_scenario_3_links_network.client[0] 	hdistance[0] 	1.6511481825307
scalar three_caches_scenario_3_links_network.client[0] 	downloads[0] 	179893
scalar three_caches_scenario_3_links_network.client[0] 	avg_time[0] 	0
scalar three_caches_scenario_3_links_network.client[0] 	interests_sent[0] 	179893
