version 2
run General-0-20140624-14:09:48-28247
attr D lce
attr F nrr
attr R lru
attr a 1
attr configname General
attr csize 1e3
attr ctlg 1e1
attr datetime 20140624-14:09:48
attr experiment General
attr inifile omnetpp.ini
attr iterationvars "$net=geant_cost, $rep=1, $priceratiovalue=10, $weights=0.333_0.333_0.334, $lambda=100, $a=1, $ctlg=1e1, $F=nrr, $ttl=1000, $D=lce, $xi=1, $R=lru, $csize=1e3, $pricebits=0, $mytime=1800"
attr iterationvars2 "$net=geant_cost, $rep=1, $priceratiovalue=10, $weights=0.333_0.333_0.334, $lambda=100, $a=1, $ctlg=1e1, $F=nrr, $ttl=1000, $D=lce, $xi=1, $R=lru, $csize=1e3, $pricebits=0, $mytime=1800, $repetition=0"
attr lambda 100
attr measurement "$net=geant_cost, $rep=1, $priceratiovalue=10, $weights=0.333_0.333_0.334, $lambda=100, $a=1, $ctlg=1e1, $F=nrr, $ttl=1000, $D=lce, $xi=1, $R=lru, $csize=1e3, $pricebits=0, $mytime=1800"
attr mytime 1800
attr net geant_cost
attr network networks.${net=geant_cost}_network
attr pricebits 0
attr priceratiovalue 10
attr processid 28247
attr rep 1
attr repetition 0
attr replication #0
attr resultdir results
attr runnumber 0
attr seedset 1
attr ttl 1000
attr weights 0.333_0.333_0.334
attr xi 1

scalar . 	a 	1
scalar . 	csize 	1e3
scalar . 	ctlg 	1e1
scalar . 	lambda 	100
scalar . 	mytime 	1800
scalar . 	pricebits 	0
scalar . 	priceratiovalue 	10
scalar . 	rep 	1
scalar . 	ttl 	1000
scalar . 	xi 	1
scalar geant_cost_network.content_distribution 	repo-0 	22
scalar geant_cost_network.content_distribution 	repo-1 	23
scalar geant_cost_network.content_distribution 	repo-2 	24
scalar geant_cost_network.content_distribution 	client-0 	20
scalar geant_cost_network.content_distribution 	client-1 	10
scalar geant_cost_network.content_distribution 	client-2 	12
scalar geant_cost_network.content_distribution 	client-3 	9
scalar geant_cost_network.content_distribution 	client-4 	5
scalar geant_cost_network.content_distribution 	repo-0_card 	1
scalar geant_cost_network.content_distribution 	repo-1_card 	3
scalar geant_cost_network.content_distribution 	repo-2_card 	6
scalar geant_cost_network.statistics 	repo_popularity[0] 	0.085354288036851
scalar geant_cost_network.statistics 	repo_popularity[1] 	0.19062457661563
scalar geant_cost_network.statistics 	repo_popularity[2] 	0.72402113534751
scalar geant_cost_network.node[7].face$o[4].channel 	price[7] 	0
scalar geant_cost_network.node[7].face$o[4].channel 	represented_price[7] 	0
scalar geant_cost_network.node[8].face$o[3].channel 	price[8] 	0
scalar geant_cost_network.node[8].face$o[3].channel 	represented_price[8] 	0
scalar geant_cost_network.node[21].face$o[5].channel 	price[21] 	0
scalar geant_cost_network.node[21].face$o[5].channel 	represented_price[21] 	0
scalar geant_cost_network.node[22].face$o[1].channel 	price[22] 	0
scalar geant_cost_network.node[22].face$o[1].channel 	represented_price[22] 	0
scalar geant_cost_network.node[23].face$o[1].channel 	price[23] 	1
scalar geant_cost_network.node[23].face$o[1].channel 	represented_price[23] 	1
scalar geant_cost_network.node[24].face$o[1].channel 	price[24] 	10
scalar geant_cost_network.node[24].face$o[1].channel 	represented_price[24] 	10
scalar geant_cost_network.statistics 	p_hit 	0.99984709814115
scalar geant_cost_network.statistics 	interests 	27468.6
scalar geant_cost_network.statistics 	data 	3.52
scalar geant_cost_network.statistics 	hdistance 	0.00015729626573974
scalar geant_cost_network.statistics 	avg_time 	5.50838e-07
scalar geant_cost_network.statistics 	downloads 	686622
scalar geant_cost_network.statistics 	total_cost 	63
scalar geant_cost_network.statistics 	total_replicas 	10
scalar geant_cost_network.statistics 	inner_hit 	0.99998543594583
scalar geant_cost_network.statistics 	interests_sent 	686627
scalar geant_cost_network.node[0].core_layer 	interests[0] 	0
scalar geant_cost_network.node[0].core_layer 	data[0] 	0
scalar geant_cost_network.node[0].core_layer 	repo_int[0] 	10
scalar geant_cost_network.node[0].content_store 	p_hit[0] 	-nan
scalar geant_cost_network.node[0].content_store 	hits[0] 	0
scalar geant_cost_network.node[0].content_store 	misses[0] 	0
scalar geant_cost_network.node[0].content_store 	decision_yes[0] 	0
scalar geant_cost_network.node[0].content_store 	decision_no[0] 	0
scalar geant_cost_network.node[0].content_store 	decision_ratio[0] 	0
scalar geant_cost_network.node[1].core_layer 	interests[1] 	0
scalar geant_cost_network.node[1].core_layer 	data[1] 	0
scalar geant_cost_network.node[1].content_store 	p_hit[1] 	-nan
scalar geant_cost_network.node[1].content_store 	hits[1] 	0
scalar geant_cost_network.node[1].content_store 	misses[1] 	0
scalar geant_cost_network.node[1].content_store 	decision_yes[1] 	0
scalar geant_cost_network.node[1].content_store 	decision_no[1] 	0
scalar geant_cost_network.node[1].content_store 	decision_ratio[1] 	0
scalar geant_cost_network.node[2].core_layer 	interests[2] 	0
scalar geant_cost_network.node[2].core_layer 	data[2] 	0
scalar geant_cost_network.node[2].content_store 	p_hit[2] 	-nan
scalar geant_cost_network.node[2].content_store 	hits[2] 	0
scalar geant_cost_network.node[2].content_store 	misses[2] 	0
scalar geant_cost_network.node[2].content_store 	decision_yes[2] 	0
scalar geant_cost_network.node[2].content_store 	decision_no[2] 	0
scalar geant_cost_network.node[2].content_store 	decision_ratio[2] 	0
scalar geant_cost_network.node[3].core_layer 	interests[3] 	9
scalar geant_cost_network.node[3].core_layer 	data[3] 	6
scalar geant_cost_network.node[3].content_store 	p_hit[3] 	0.33333333333333
scalar geant_cost_network.node[3].content_store 	hits[3] 	3
scalar geant_cost_network.node[3].content_store 	misses[3] 	6
scalar geant_cost_network.node[3].content_store 	decision_yes[3] 	6
scalar geant_cost_network.node[3].content_store 	decision_no[3] 	0
scalar geant_cost_network.node[3].content_store 	decision_ratio[3] 	1
scalar geant_cost_network.node[4].core_layer 	interests[4] 	7
scalar geant_cost_network.node[4].core_layer 	data[4] 	7
scalar geant_cost_network.node[4].content_store 	p_hit[4] 	0
scalar geant_cost_network.node[4].content_store 	hits[4] 	0
scalar geant_cost_network.node[4].content_store 	misses[4] 	7
scalar geant_cost_network.node[4].content_store 	decision_yes[4] 	7
scalar geant_cost_network.node[4].content_store 	decision_no[4] 	0
scalar geant_cost_network.node[4].content_store 	decision_ratio[4] 	1
scalar geant_cost_network.node[5].core_layer 	interests[5] 	137072
scalar geant_cost_network.node[5].core_layer 	data[5] 	10
scalar geant_cost_network.node[5].content_store 	p_hit[5] 	0.9999124547683
scalar geant_cost_network.node[5].content_store 	hits[5] 	137060
scalar geant_cost_network.node[5].content_store 	misses[5] 	12
scalar geant_cost_network.node[5].content_store 	decision_yes[5] 	10
scalar geant_cost_network.node[5].content_store 	decision_no[5] 	0
scalar geant_cost_network.node[5].content_store 	decision_ratio[5] 	1
scalar geant_cost_network.node[6].core_layer 	interests[6] 	1
scalar geant_cost_network.node[6].core_layer 	data[6] 	1
scalar geant_cost_network.node[6].content_store 	p_hit[6] 	0
scalar geant_cost_network.node[6].content_store 	hits[6] 	0
scalar geant_cost_network.node[6].content_store 	misses[6] 	1
scalar geant_cost_network.node[6].content_store 	decision_yes[6] 	1
scalar geant_cost_network.node[6].content_store 	decision_no[6] 	0
scalar geant_cost_network.node[6].content_store 	decision_ratio[6] 	1
scalar geant_cost_network.node[7].core_layer 	interests[7] 	5
scalar geant_cost_network.node[7].core_layer 	data[7] 	3
scalar geant_cost_network.node[7].content_store 	p_hit[7] 	0.4
scalar geant_cost_network.node[7].content_store 	hits[7] 	2
scalar geant_cost_network.node[7].content_store 	misses[7] 	3
scalar geant_cost_network.node[7].content_store 	decision_yes[7] 	3
scalar geant_cost_network.node[7].content_store 	decision_no[7] 	0
scalar geant_cost_network.node[7].content_store 	decision_ratio[7] 	1
scalar geant_cost_network.node[8].core_layer 	interests[8] 	6
scalar geant_cost_network.node[8].core_layer 	data[8] 	4
scalar geant_cost_network.node[8].content_store 	p_hit[8] 	0.33333333333333
scalar geant_cost_network.node[8].content_store 	hits[8] 	2
scalar geant_cost_network.node[8].content_store 	misses[8] 	4
scalar geant_cost_network.node[8].content_store 	decision_yes[8] 	4
scalar geant_cost_network.node[8].content_store 	decision_no[8] 	0
scalar geant_cost_network.node[8].content_store 	decision_ratio[8] 	1
scalar geant_cost_network.node[9].core_layer 	interests[9] 	137502
scalar geant_cost_network.node[9].core_layer 	data[9] 	10
scalar geant_cost_network.node[9].content_store 	p_hit[9] 	0.99992727378511
scalar geant_cost_network.node[9].content_store 	hits[9] 	137492
scalar geant_cost_network.node[9].content_store 	misses[9] 	10
scalar geant_cost_network.node[9].content_store 	decision_yes[9] 	10
scalar geant_cost_network.node[9].content_store 	decision_no[9] 	0
scalar geant_cost_network.node[9].content_store 	decision_ratio[9] 	1
scalar geant_cost_network.node[10].core_layer 	interests[10] 	137350
scalar geant_cost_network.node[10].core_layer 	data[10] 	10
scalar geant_cost_network.node[10].content_store 	p_hit[10] 	0.99991991263196
scalar geant_cost_network.node[10].content_store 	hits[10] 	137339
scalar geant_cost_network.node[10].content_store 	misses[10] 	11
scalar geant_cost_network.node[10].content_store 	decision_yes[10] 	10
scalar geant_cost_network.node[10].content_store 	decision_no[10] 	0
scalar geant_cost_network.node[10].content_store 	decision_ratio[10] 	1
scalar geant_cost_network.node[11].core_layer 	interests[11] 	0
scalar geant_cost_network.node[11].core_layer 	data[11] 	0
scalar geant_cost_network.node[11].content_store 	p_hit[11] 	-nan
scalar geant_cost_network.node[11].content_store 	hits[11] 	0
scalar geant_cost_network.node[11].content_store 	misses[11] 	0
scalar geant_cost_network.node[11].content_store 	decision_yes[11] 	0
scalar geant_cost_network.node[11].content_store 	decision_no[11] 	0
scalar geant_cost_network.node[11].content_store 	decision_ratio[11] 	0
scalar geant_cost_network.node[12].core_layer 	interests[12] 	136878
scalar geant_cost_network.node[12].core_layer 	data[12] 	10
scalar geant_cost_network.node[12].content_store 	p_hit[12] 	0.99989771913675
scalar geant_cost_network.node[12].content_store 	hits[12] 	136864
scalar geant_cost_network.node[12].content_store 	misses[12] 	14
scalar geant_cost_network.node[12].content_store 	decision_yes[12] 	10
scalar geant_cost_network.node[12].content_store 	decision_no[12] 	0
scalar geant_cost_network.node[12].content_store 	decision_ratio[12] 	1
scalar geant_cost_network.node[13].core_layer 	interests[13] 	1
scalar geant_cost_network.node[13].core_layer 	data[13] 	1
scalar geant_cost_network.node[13].content_store 	p_hit[13] 	0
scalar geant_cost_network.node[13].content_store 	hits[13] 	0
scalar geant_cost_network.node[13].content_store 	misses[13] 	1
scalar geant_cost_network.node[13].content_store 	decision_yes[13] 	1
scalar geant_cost_network.node[13].content_store 	decision_no[13] 	0
scalar geant_cost_network.node[13].content_store 	decision_ratio[13] 	1
scalar geant_cost_network.node[14].core_layer 	interests[14] 	7
scalar geant_cost_network.node[14].core_layer 	data[14] 	6
scalar geant_cost_network.node[14].content_store 	p_hit[14] 	0.14285714285714
scalar geant_cost_network.node[14].content_store 	hits[14] 	1
scalar geant_cost_network.node[14].content_store 	misses[14] 	6
scalar geant_cost_network.node[14].content_store 	decision_yes[14] 	6
scalar geant_cost_network.node[14].content_store 	decision_no[14] 	0
scalar geant_cost_network.node[14].content_store 	decision_ratio[14] 	1
scalar geant_cost_network.node[15].core_layer 	interests[15] 	0
scalar geant_cost_network.node[15].core_layer 	data[15] 	0
scalar geant_cost_network.node[15].content_store 	p_hit[15] 	-nan
scalar geant_cost_network.node[15].content_store 	hits[15] 	0
scalar geant_cost_network.node[15].content_store 	misses[15] 	0
scalar geant_cost_network.node[15].content_store 	decision_yes[15] 	0
scalar geant_cost_network.node[15].content_store 	decision_no[15] 	0
scalar geant_cost_network.node[15].content_store 	decision_ratio[15] 	0
scalar geant_cost_network.node[16].core_layer 	interests[16] 	0
scalar geant_cost_network.node[16].core_layer 	data[16] 	0
scalar geant_cost_network.node[16].content_store 	p_hit[16] 	-nan
scalar geant_cost_network.node[16].content_store 	hits[16] 	0
scalar geant_cost_network.node[16].content_store 	misses[16] 	0
scalar geant_cost_network.node[16].content_store 	decision_yes[16] 	0
scalar geant_cost_network.node[16].content_store 	decision_no[16] 	0
scalar geant_cost_network.node[16].content_store 	decision_ratio[16] 	0
scalar geant_cost_network.node[17].core_layer 	interests[17] 	0
scalar geant_cost_network.node[17].core_layer 	data[17] 	0
scalar geant_cost_network.node[17].content_store 	p_hit[17] 	-nan
scalar geant_cost_network.node[17].content_store 	hits[17] 	0
scalar geant_cost_network.node[17].content_store 	misses[17] 	0
scalar geant_cost_network.node[17].content_store 	decision_yes[17] 	0
scalar geant_cost_network.node[17].content_store 	decision_no[17] 	0
scalar geant_cost_network.node[17].content_store 	decision_ratio[17] 	0
scalar geant_cost_network.node[18].core_layer 	interests[18] 	6
scalar geant_cost_network.node[18].core_layer 	data[18] 	4
scalar geant_cost_network.node[18].content_store 	p_hit[18] 	0.33333333333333
scalar geant_cost_network.node[18].content_store 	hits[18] 	2
scalar geant_cost_network.node[18].content_store 	misses[18] 	4
scalar geant_cost_network.node[18].content_store 	decision_yes[18] 	4
scalar geant_cost_network.node[18].content_store 	decision_no[18] 	0
scalar geant_cost_network.node[18].content_store 	decision_ratio[18] 	1
scalar geant_cost_network.node[19].core_layer 	interests[19] 	0
scalar geant_cost_network.node[19].core_layer 	data[19] 	0
scalar geant_cost_network.node[19].content_store 	p_hit[19] 	-nan
scalar geant_cost_network.node[19].content_store 	hits[19] 	0
scalar geant_cost_network.node[19].content_store 	misses[19] 	0
scalar geant_cost_network.node[19].content_store 	decision_yes[19] 	0
scalar geant_cost_network.node[19].content_store 	decision_no[19] 	0
scalar geant_cost_network.node[19].content_store 	decision_ratio[19] 	0
scalar geant_cost_network.node[20].core_layer 	interests[20] 	137848
scalar geant_cost_network.node[20].core_layer 	data[20] 	10
scalar geant_cost_network.node[20].content_store 	p_hit[20] 	0.99992745632871
scalar geant_cost_network.node[20].content_store 	hits[20] 	137838
scalar geant_cost_network.node[20].content_store 	misses[20] 	10
scalar geant_cost_network.node[20].content_store 	decision_yes[20] 	10
scalar geant_cost_network.node[20].content_store 	decision_no[20] 	0
scalar geant_cost_network.node[20].content_store 	decision_ratio[20] 	1
scalar geant_cost_network.node[21].core_layer 	interests[21] 	13
scalar geant_cost_network.node[21].core_layer 	data[21] 	6
scalar geant_cost_network.node[21].content_store 	p_hit[21] 	0.53846153846154
scalar geant_cost_network.node[21].content_store 	hits[21] 	7
scalar geant_cost_network.node[21].content_store 	misses[21] 	6
scalar geant_cost_network.node[21].content_store 	decision_yes[21] 	6
scalar geant_cost_network.node[21].content_store 	decision_no[21] 	0
scalar geant_cost_network.node[21].content_store 	decision_ratio[21] 	1
scalar geant_cost_network.node[22].core_layer 	interests[22] 	1
scalar geant_cost_network.node[22].core_layer 	repo_load[22] 	1
scalar geant_cost_network.node[22].core_layer 	data[22] 	0
scalar geant_cost_network.node[22].content_store 	p_hit[22] 	0
scalar geant_cost_network.node[22].content_store 	hits[22] 	0
scalar geant_cost_network.node[22].content_store 	misses[22] 	1
scalar geant_cost_network.node[22].content_store 	decision_yes[22] 	0
scalar geant_cost_network.node[22].content_store 	decision_no[22] 	1
scalar geant_cost_network.node[22].content_store 	decision_ratio[22] 	0
scalar geant_cost_network.node[23].core_layer 	interests[23] 	3
scalar geant_cost_network.node[23].core_layer 	repo_load[23] 	3
scalar geant_cost_network.node[23].core_layer 	data[23] 	0
scalar geant_cost_network.node[23].content_store 	p_hit[23] 	0
scalar geant_cost_network.node[23].content_store 	hits[23] 	0
scalar geant_cost_network.node[23].content_store 	misses[23] 	3
scalar geant_cost_network.node[23].content_store 	decision_yes[23] 	0
scalar geant_cost_network.node[23].content_store 	decision_no[23] 	3
scalar geant_cost_network.node[23].content_store 	decision_ratio[23] 	0
scalar geant_cost_network.node[24].core_layer 	interests[24] 	6
scalar geant_cost_network.node[24].core_layer 	repo_load[24] 	6
scalar geant_cost_network.node[24].core_layer 	data[24] 	0
scalar geant_cost_network.node[24].content_store 	p_hit[24] 	0
scalar geant_cost_network.node[24].content_store 	hits[24] 	0
scalar geant_cost_network.node[24].content_store 	misses[24] 	6
scalar geant_cost_network.node[24].content_store 	decision_yes[24] 	0
scalar geant_cost_network.node[24].content_store 	decision_no[24] 	6
scalar geant_cost_network.node[24].content_store 	decision_ratio[24] 	0
scalar geant_cost_network.client[5] 	hdistance[5] 	0.00016779992412525
scalar geant_cost_network.client[5] 	downloads[5] 	137068
scalar geant_cost_network.client[5] 	avg_time[5] 	6.23816e-07
scalar geant_cost_network.client[5] 	interests_sent[5] 	137070
scalar geant_cost_network.client[9] 	hdistance[9] 	0.00016001512870308
scalar geant_cost_network.client[9] 	downloads[9] 	137487
scalar geant_cost_network.client[9] 	avg_time[9] 	1.82248e-07
scalar geant_cost_network.client[9] 	interests_sent[9] 	137488
scalar geant_cost_network.client[10] 	hdistance[10] 	0.00013833373377309
scalar geant_cost_network.client[10] 	downloads[10] 	137349
scalar geant_cost_network.client[10] 	avg_time[10] 	6.1931e-07
scalar geant_cost_network.client[10] 	interests_sent[10] 	137350
scalar geant_cost_network.client[12] 	hdistance[12] 	0.000160736465259
scalar geant_cost_network.client[12] 	downloads[12] 	136870
scalar geant_cost_network.client[12] 	avg_time[12] 	9.777e-07
scalar geant_cost_network.client[12] 	interests_sent[12] 	136871
scalar geant_cost_network.client[20] 	hdistance[20] 	0.00015959607683826
scalar geant_cost_network.client[20] 	downloads[20] 	137848
scalar geant_cost_network.client[20] 	avg_time[20] 	3.51117e-07
scalar geant_cost_network.client[20] 	interests_sent[20] 	137848
