version 2
run General-2027-20140504-20:05:02-19918
attr D costprob0.01
attr F nrr
attr R lru
attr a 1
attr configname General
attr csize 1e3
attr ctlg 1e5
attr datetime 20140504-20:05:02
attr experiment General
attr inifile omnetpp.ini
attr iterationvars "$net=one_cache_scenario_3_links, $rep=19, $priceratiovalue=10, $weights=0.333_0.333_0.334, $a=1, $ctlg=1e5, $F=nrr, $ttl=1000, $D=costprob0.01, $xi=1, $R=lru, $csize=1e3"
attr iterationvars2 "$net=one_cache_scenario_3_links, $rep=19, $priceratiovalue=10, $weights=0.333_0.333_0.334, $a=1, $ctlg=1e5, $F=nrr, $ttl=1000, $D=costprob0.01, $xi=1, $R=lru, $csize=1e3, $repetition=0"
attr measurement "$net=one_cache_scenario_3_links, $rep=19, $priceratiovalue=10, $weights=0.333_0.333_0.334, $a=1, $ctlg=1e5, $F=nrr, $ttl=1000, $D=costprob0.01, $xi=1, $R=lru, $csize=1e3"
attr net one_cache_scenario_3_links
attr network networks.${net=one_cache_scenario_3_links}_network
attr priceratiovalue 10
attr processid 19918
attr rep 19
attr repetition 0
attr replication #0
attr resultdir results
attr runnumber 2027
attr seedset 19
attr ttl 1000
attr weights 0.333_0.333_0.334
attr xi 1

scalar . 	a 	1
scalar . 	csize 	1e3
scalar . 	ctlg 	1e5
scalar . 	priceratiovalue 	10
scalar . 	rep 	19
scalar . 	ttl 	1000
scalar . 	xi 	1
scalar one_cache_scenario_3_links_network.content_distribution 	repo-0 	4
scalar one_cache_scenario_3_links_network.content_distribution 	repo-1 	5
scalar one_cache_scenario_3_links_network.content_distribution 	repo-2 	6
scalar one_cache_scenario_3_links_network.content_distribution 	client-0 	0
scalar one_cache_scenario_3_links_network.content_distribution 	repo-0_card 	33222
scalar one_cache_scenario_3_links_network.content_distribution 	repo-1_card 	33327
scalar one_cache_scenario_3_links_network.content_distribution 	repo-2_card 	33451
scalar one_cache_scenario_3_links_network.statistics 	p_hit 	0.17816619671089
scalar one_cache_scenario_3_links_network.statistics 	interests 	57097.571428571
scalar one_cache_scenario_3_links_network.statistics 	data 	31283.142857143
scalar one_cache_scenario_3_links_network.statistics 	hdistance 	1.2118471950902
scalar one_cache_scenario_3_links_network.statistics 	avg_time 	0
scalar one_cache_scenario_3_links_network.statistics 	downloads 	180701
scalar one_cache_scenario_3_links_network.statistics 	total_cost 	264164
scalar one_cache_scenario_3_links_network.statistics 	total_replicas 	100000
scalar one_cache_scenario_3_links_network.statistics 	interests_sent 	180701
scalar one_cache_scenario_3_links_network.node[0].core_layer 	interests[0] 	180701
scalar one_cache_scenario_3_links_network.node[0].core_layer 	data[0] 	109491
scalar one_cache_scenario_3_links_network.node[0].core_layer 	repo_int[0] 	109491
scalar one_cache_scenario_3_links_network.node[0].content_store 	p_hit[0] 	0.39407640245488
scalar one_cache_scenario_3_links_network.node[0].content_store 	hits[0] 	71210
scalar one_cache_scenario_3_links_network.node[0].content_store 	misses[0] 	109491
scalar one_cache_scenario_3_links_network.node[0].content_store 	decision_yes[0] 	763
scalar one_cache_scenario_3_links_network.node[0].content_store 	decision_no[0] 	108728
scalar one_cache_scenario_3_links_network.node[1].core_layer 	interests[1] 	51670
scalar one_cache_scenario_3_links_network.node[1].core_layer 	data[1] 	51670
scalar one_cache_scenario_3_links_network.node[1].content_store 	p_hit[1] 	0
scalar one_cache_scenario_3_links_network.node[1].content_store 	hits[1] 	0
scalar one_cache_scenario_3_links_network.node[1].content_store 	misses[1] 	51670
scalar one_cache_scenario_3_links_network.node[1].content_store 	decision_yes[1] 	0
scalar one_cache_scenario_3_links_network.node[1].content_store 	decision_no[1] 	51670
scalar one_cache_scenario_3_links_network.node[2].core_layer 	interests[2] 	34894
scalar one_cache_scenario_3_links_network.node[2].core_layer 	data[2] 	34894
scalar one_cache_scenario_3_links_network.node[2].content_store 	p_hit[2] 	0
scalar one_cache_scenario_3_links_network.node[2].content_store 	hits[2] 	0
scalar one_cache_scenario_3_links_network.node[2].content_store 	misses[2] 	34894
scalar one_cache_scenario_3_links_network.node[2].content_store 	decision_yes[2] 	0
scalar one_cache_scenario_3_links_network.node[2].content_store 	decision_no[2] 	34894
scalar one_cache_scenario_3_links_network.node[3].core_layer 	interests[3] 	22927
scalar one_cache_scenario_3_links_network.node[3].core_layer 	data[3] 	22927
scalar one_cache_scenario_3_links_network.node[3].content_store 	p_hit[3] 	0
scalar one_cache_scenario_3_links_network.node[3].content_store 	hits[3] 	0
scalar one_cache_scenario_3_links_network.node[3].content_store 	misses[3] 	22927
scalar one_cache_scenario_3_links_network.node[3].content_store 	decision_yes[3] 	0
scalar one_cache_scenario_3_links_network.node[3].content_store 	decision_no[3] 	22927
scalar one_cache_scenario_3_links_network.node[4].core_layer 	interests[4] 	51670
scalar one_cache_scenario_3_links_network.node[4].core_layer 	repo_load[4] 	51670
scalar one_cache_scenario_3_links_network.node[4].core_layer 	data[4] 	0
scalar one_cache_scenario_3_links_network.node[4].content_store 	p_hit[4] 	0
scalar one_cache_scenario_3_links_network.node[4].content_store 	hits[4] 	0
scalar one_cache_scenario_3_links_network.node[4].content_store 	misses[4] 	51670
scalar one_cache_scenario_3_links_network.node[4].content_store 	decision_yes[4] 	0
scalar one_cache_scenario_3_links_network.node[4].content_store 	decision_no[4] 	51670
scalar one_cache_scenario_3_links_network.node[5].core_layer 	interests[5] 	34894
scalar one_cache_scenario_3_links_network.node[5].core_layer 	repo_load[5] 	34894
scalar one_cache_scenario_3_links_network.node[5].core_layer 	data[5] 	0
scalar one_cache_scenario_3_links_network.node[5].content_store 	p_hit[5] 	0
scalar one_cache_scenario_3_links_network.node[5].content_store 	hits[5] 	0
scalar one_cache_scenario_3_links_network.node[5].content_store 	misses[5] 	34894
scalar one_cache_scenario_3_links_network.node[5].content_store 	decision_yes[5] 	0
scalar one_cache_scenario_3_links_network.node[5].content_store 	decision_no[5] 	34894
scalar one_cache_scenario_3_links_network.node[6].core_layer 	interests[6] 	22927
scalar one_cache_scenario_3_links_network.node[6].core_layer 	repo_load[6] 	22927
scalar one_cache_scenario_3_links_network.node[6].core_layer 	data[6] 	0
scalar one_cache_scenario_3_links_network.node[6].content_store 	p_hit[6] 	0
scalar one_cache_scenario_3_links_network.node[6].content_store 	hits[6] 	0
scalar one_cache_scenario_3_links_network.node[6].content_store 	misses[6] 	22927
scalar one_cache_scenario_3_links_network.node[6].content_store 	decision_yes[6] 	0
scalar one_cache_scenario_3_links_network.node[6].content_store 	decision_no[6] 	22927
scalar one_cache_scenario_3_links_network.client[0] 	hdistance[0] 	1.2118471950902
scalar one_cache_scenario_3_links_network.client[0] 	downloads[0] 	180701
scalar one_cache_scenario_3_links_network.client[0] 	avg_time[0] 	0
scalar one_cache_scenario_3_links_network.client[0] 	interests_sent[0] 	180701
