version 2
run General-12-20140513-15:50:41-1993
attr D fix0.01
attr F nrr
attr R lru
attr a 0.8
attr configname General
attr csize 1e2
attr ctlg 1e4
attr datetime 20140513-15:50:41
attr experiment General
attr inifile omnetpp.ini
attr iterationvars "$net=one_cache_scenario_3_links, $rep=3, $priceratiovalue=100, $weights=0.333_0.333_0.334, $a=0.8, $ctlg=1e4, $F=nrr, $ttl=1000, $D=fix0.01, $xi=1, $R=lru, $csize=1e2"
attr iterationvars2 "$net=one_cache_scenario_3_links, $rep=3, $priceratiovalue=100, $weights=0.333_0.333_0.334, $a=0.8, $ctlg=1e4, $F=nrr, $ttl=1000, $D=fix0.01, $xi=1, $R=lru, $csize=1e2, $repetition=0"
attr measurement "$net=one_cache_scenario_3_links, $rep=3, $priceratiovalue=100, $weights=0.333_0.333_0.334, $a=0.8, $ctlg=1e4, $F=nrr, $ttl=1000, $D=fix0.01, $xi=1, $R=lru, $csize=1e2"
attr net one_cache_scenario_3_links
attr network networks.${net=one_cache_scenario_3_links}_network
attr priceratiovalue 100
attr processid 1993
attr rep 3
attr repetition 0
attr replication #0
attr resultdir results
attr runnumber 12
attr seedset 3
attr ttl 1000
attr weights 0.333_0.333_0.334
attr xi 1

scalar . 	a 	0.8
scalar . 	csize 	1e2
scalar . 	ctlg 	1e4
scalar . 	priceratiovalue 	100
scalar . 	rep 	3
scalar . 	ttl 	1000
scalar . 	xi 	1
scalar one_cache_scenario_3_links_network.content_distribution 	repo-0 	4
scalar one_cache_scenario_3_links_network.content_distribution 	repo-1 	5
scalar one_cache_scenario_3_links_network.content_distribution 	repo-2 	6
scalar one_cache_scenario_3_links_network.content_distribution 	client-0 	0
scalar one_cache_scenario_3_links_network.content_distribution 	repo-0_card 	3425
scalar one_cache_scenario_3_links_network.content_distribution 	repo-1_card 	3308
scalar one_cache_scenario_3_links_network.content_distribution 	repo-2_card 	3267
scalar one_cache_scenario_3_links_network.statistics 	p_hit 	0.1014664196594
scalar one_cache_scenario_3_links_network.statistics 	interests 	64004.285714286
scalar one_cache_scenario_3_links_network.statistics 	data 	38340
scalar one_cache_scenario_3_links_network.statistics 	hdistance 	1.4939048149179
scalar one_cache_scenario_3_links_network.statistics 	avg_time 	0
scalar one_cache_scenario_3_links_network.statistics 	downloads 	179650
scalar one_cache_scenario_3_links_network.statistics 	total_cost 	4313315
scalar one_cache_scenario_3_links_network.statistics 	total_replicas 	10000
scalar one_cache_scenario_3_links_network.statistics 	interests_sent 	179650
scalar one_cache_scenario_3_links_network.node[0].core_layer 	interests[0] 	179650
scalar one_cache_scenario_3_links_network.node[0].core_layer 	data[0] 	134190
scalar one_cache_scenario_3_links_network.node[0].core_layer 	repo_int[0] 	134190
scalar one_cache_scenario_3_links_network.node[0].content_store 	p_hit[0] 	0.25304759254105
scalar one_cache_scenario_3_links_network.node[0].content_store 	hits[0] 	45460
scalar one_cache_scenario_3_links_network.node[0].content_store 	misses[0] 	134190
scalar one_cache_scenario_3_links_network.node[0].content_store 	decision_yes[0] 	1339
scalar one_cache_scenario_3_links_network.node[0].content_store 	decision_no[0] 	132851
scalar one_cache_scenario_3_links_network.node[0].content_store 	decision_ratio[0] 	0.0099783888516283
scalar one_cache_scenario_3_links_network.node[1].core_layer 	interests[1] 	46492
scalar one_cache_scenario_3_links_network.node[1].core_layer 	data[1] 	46492
scalar one_cache_scenario_3_links_network.node[1].content_store 	p_hit[1] 	0
scalar one_cache_scenario_3_links_network.node[1].content_store 	hits[1] 	0
scalar one_cache_scenario_3_links_network.node[1].content_store 	misses[1] 	46492
scalar one_cache_scenario_3_links_network.node[1].content_store 	decision_yes[1] 	0
scalar one_cache_scenario_3_links_network.node[1].content_store 	decision_no[1] 	46492
scalar one_cache_scenario_3_links_network.node[1].content_store 	decision_ratio[1] 	0
scalar one_cache_scenario_3_links_network.node[2].core_layer 	interests[2] 	45015
scalar one_cache_scenario_3_links_network.node[2].core_layer 	data[2] 	45015
scalar one_cache_scenario_3_links_network.node[2].content_store 	p_hit[2] 	0
scalar one_cache_scenario_3_links_network.node[2].content_store 	hits[2] 	0
scalar one_cache_scenario_3_links_network.node[2].content_store 	misses[2] 	45015
scalar one_cache_scenario_3_links_network.node[2].content_store 	decision_yes[2] 	0
scalar one_cache_scenario_3_links_network.node[2].content_store 	decision_no[2] 	45015
scalar one_cache_scenario_3_links_network.node[2].content_store 	decision_ratio[2] 	0
scalar one_cache_scenario_3_links_network.node[3].core_layer 	interests[3] 	42683
scalar one_cache_scenario_3_links_network.node[3].core_layer 	data[3] 	42683
scalar one_cache_scenario_3_links_network.node[3].content_store 	p_hit[3] 	0
scalar one_cache_scenario_3_links_network.node[3].content_store 	hits[3] 	0
scalar one_cache_scenario_3_links_network.node[3].content_store 	misses[3] 	42683
scalar one_cache_scenario_3_links_network.node[3].content_store 	decision_yes[3] 	0
scalar one_cache_scenario_3_links_network.node[3].content_store 	decision_no[3] 	42683
scalar one_cache_scenario_3_links_network.node[3].content_store 	decision_ratio[3] 	0
scalar one_cache_scenario_3_links_network.node[4].core_layer 	interests[4] 	46492
scalar one_cache_scenario_3_links_network.node[4].core_layer 	repo_load[4] 	46492
scalar one_cache_scenario_3_links_network.node[4].core_layer 	data[4] 	0
scalar one_cache_scenario_3_links_network.node[4].content_store 	p_hit[4] 	0
scalar one_cache_scenario_3_links_network.node[4].content_store 	hits[4] 	0
scalar one_cache_scenario_3_links_network.node[4].content_store 	misses[4] 	46492
scalar one_cache_scenario_3_links_network.node[4].content_store 	decision_yes[4] 	0
scalar one_cache_scenario_3_links_network.node[4].content_store 	decision_no[4] 	46492
scalar one_cache_scenario_3_links_network.node[4].content_store 	decision_ratio[4] 	0
scalar one_cache_scenario_3_links_network.node[5].core_layer 	interests[5] 	45015
scalar one_cache_scenario_3_links_network.node[5].core_layer 	repo_load[5] 	45015
scalar one_cache_scenario_3_links_network.node[5].core_layer 	data[5] 	0
scalar one_cache_scenario_3_links_network.node[5].content_store 	p_hit[5] 	0
scalar one_cache_scenario_3_links_network.node[5].content_store 	hits[5] 	0
scalar one_cache_scenario_3_links_network.node[5].content_store 	misses[5] 	45015
scalar one_cache_scenario_3_links_network.node[5].content_store 	decision_yes[5] 	0
scalar one_cache_scenario_3_links_network.node[5].content_store 	decision_no[5] 	45015
scalar one_cache_scenario_3_links_network.node[5].content_store 	decision_ratio[5] 	0
scalar one_cache_scenario_3_links_network.node[6].core_layer 	interests[6] 	42683
scalar one_cache_scenario_3_links_network.node[6].core_layer 	repo_load[6] 	42683
scalar one_cache_scenario_3_links_network.node[6].core_layer 	data[6] 	0
scalar one_cache_scenario_3_links_network.node[6].content_store 	p_hit[6] 	0
scalar one_cache_scenario_3_links_network.node[6].content_store 	hits[6] 	0
scalar one_cache_scenario_3_links_network.node[6].content_store 	misses[6] 	42683
scalar one_cache_scenario_3_links_network.node[6].content_store 	decision_yes[6] 	0
scalar one_cache_scenario_3_links_network.node[6].content_store 	decision_no[6] 	42683
scalar one_cache_scenario_3_links_network.node[6].content_store 	decision_ratio[6] 	0
scalar one_cache_scenario_3_links_network.client[0] 	hdistance[0] 	1.4939048149179
scalar one_cache_scenario_3_links_network.client[0] 	downloads[0] 	179650
scalar one_cache_scenario_3_links_network.client[0] 	avg_time[0] 	0
scalar one_cache_scenario_3_links_network.client[0] 	interests_sent[0] 	179650
