version 2
run General-2687-20140502-06:14:38-11645
attr D fix0.005
attr F nrr
attr R lru
attr a 1
attr configname General
attr csize 1e3
attr ctlg 1e5
attr datetime 20140502-06:14:38
attr experiment General
attr inifile omnetpp.ini
attr iterationvars "$net=three_caches_scenario_3_links, $rep=5, $priceratiovalue=5, $weights=0.7_0.15_0.15, $a=1, $ctlg=1e5, $F=nrr, $ttl=1000, $D=fix0.005, $xi=1, $R=lru, $csize=1e3"
attr iterationvars2 "$net=three_caches_scenario_3_links, $rep=5, $priceratiovalue=5, $weights=0.7_0.15_0.15, $a=1, $ctlg=1e5, $F=nrr, $ttl=1000, $D=fix0.005, $xi=1, $R=lru, $csize=1e3, $repetition=0"
attr measurement "$net=three_caches_scenario_3_links, $rep=5, $priceratiovalue=5, $weights=0.7_0.15_0.15, $a=1, $ctlg=1e5, $F=nrr, $ttl=1000, $D=fix0.005, $xi=1, $R=lru, $csize=1e3"
attr net three_caches_scenario_3_links
attr network networks.${net=three_caches_scenario_3_links}_network
attr priceratiovalue 5
attr processid 11645
attr rep 5
attr repetition 0
attr replication #0
attr resultdir results
attr runnumber 2687
attr seedset 5
attr ttl 1000
attr weights 0.7_0.15_0.15
attr xi 1

scalar . 	a 	1
scalar . 	csize 	1e3
scalar . 	ctlg 	1e5
scalar . 	priceratiovalue 	5
scalar . 	rep 	5
scalar . 	ttl 	1000
scalar . 	xi 	1
scalar three_caches_scenario_3_links_network.content_distribution 	repo-0 	4
scalar three_caches_scenario_3_links_network.content_distribution 	repo-1 	5
scalar three_caches_scenario_3_links_network.content_distribution 	repo-2 	6
scalar three_caches_scenario_3_links_network.content_distribution 	client-0 	0
scalar three_caches_scenario_3_links_network.content_distribution 	repo-0_card 	70036
scalar three_caches_scenario_3_links_network.content_distribution 	repo-1_card 	14984
scalar three_caches_scenario_3_links_network.content_distribution 	repo-2_card 	14980
scalar three_caches_scenario_3_links_network.statistics 	p_hit 	0.2738793002932
scalar three_caches_scenario_3_links_network.statistics 	interests 	50233.285714286
scalar three_caches_scenario_3_links_network.statistics 	data 	24530
scalar three_caches_scenario_3_links_network.statistics 	hdistance 	1.072931198346
scalar three_caches_scenario_3_links_network.statistics 	avg_time 	0
scalar three_caches_scenario_3_links_network.statistics 	downloads 	179923
scalar three_caches_scenario_3_links_network.statistics 	total_cost 	64199
scalar three_caches_scenario_3_links_network.statistics 	total_replicas 	100000
scalar three_caches_scenario_3_links_network.statistics 	interests_sent 	179923
scalar three_caches_scenario_3_links_network.node[0].core_layer 	interests[0] 	179923
scalar three_caches_scenario_3_links_network.node[0].core_layer 	data[0] 	88092
scalar three_caches_scenario_3_links_network.node[0].core_layer 	repo_int[0] 	83618
scalar three_caches_scenario_3_links_network.node[0].content_store 	p_hit[0] 	0.51039055596005
scalar three_caches_scenario_3_links_network.node[0].content_store 	hits[0] 	91831
scalar three_caches_scenario_3_links_network.node[0].content_store 	misses[0] 	88092
scalar three_caches_scenario_3_links_network.node[0].content_store 	decision_yes[0] 	424
scalar three_caches_scenario_3_links_network.node[0].content_store 	decision_no[0] 	87668
scalar three_caches_scenario_3_links_network.node[1].core_layer 	interests[1] 	62283
scalar three_caches_scenario_3_links_network.node[1].core_layer 	data[1] 	62283
scalar three_caches_scenario_3_links_network.node[1].content_store 	p_hit[1] 	0
scalar three_caches_scenario_3_links_network.node[1].content_store 	hits[1] 	0
scalar three_caches_scenario_3_links_network.node[1].content_store 	misses[1] 	62283
scalar three_caches_scenario_3_links_network.node[1].content_store 	decision_yes[1] 	0
scalar three_caches_scenario_3_links_network.node[1].content_store 	decision_no[1] 	62283
scalar three_caches_scenario_3_links_network.node[2].core_layer 	interests[2] 	12781
scalar three_caches_scenario_3_links_network.node[2].core_layer 	data[2] 	10619
scalar three_caches_scenario_3_links_network.node[2].content_store 	p_hit[2] 	0.16915734293091
scalar three_caches_scenario_3_links_network.node[2].content_store 	hits[2] 	2162
scalar three_caches_scenario_3_links_network.node[2].content_store 	misses[2] 	10619
scalar three_caches_scenario_3_links_network.node[2].content_store 	decision_yes[2] 	52
scalar three_caches_scenario_3_links_network.node[2].content_store 	decision_no[2] 	10567
scalar three_caches_scenario_3_links_network.node[3].core_layer 	interests[3] 	13028
scalar three_caches_scenario_3_links_network.node[3].core_layer 	data[3] 	10716
scalar three_caches_scenario_3_links_network.node[3].content_store 	p_hit[3] 	0.17746392385631
scalar three_caches_scenario_3_links_network.node[3].content_store 	hits[3] 	2312
scalar three_caches_scenario_3_links_network.node[3].content_store 	misses[3] 	10716
scalar three_caches_scenario_3_links_network.node[3].content_store 	decision_yes[3] 	58
scalar three_caches_scenario_3_links_network.node[3].content_store 	decision_no[3] 	10658
scalar three_caches_scenario_3_links_network.node[4].core_layer 	interests[4] 	62283
scalar three_caches_scenario_3_links_network.node[4].core_layer 	repo_load[4] 	62283
scalar three_caches_scenario_3_links_network.node[4].core_layer 	data[4] 	0
scalar three_caches_scenario_3_links_network.node[4].content_store 	p_hit[4] 	0
scalar three_caches_scenario_3_links_network.node[4].content_store 	hits[4] 	0
scalar three_caches_scenario_3_links_network.node[4].content_store 	misses[4] 	62283
scalar three_caches_scenario_3_links_network.node[4].content_store 	decision_yes[4] 	0
scalar three_caches_scenario_3_links_network.node[4].content_store 	decision_no[4] 	62283
scalar three_caches_scenario_3_links_network.node[5].core_layer 	interests[5] 	10619
scalar three_caches_scenario_3_links_network.node[5].core_layer 	repo_load[5] 	10619
scalar three_caches_scenario_3_links_network.node[5].core_layer 	data[5] 	0
scalar three_caches_scenario_3_links_network.node[5].content_store 	p_hit[5] 	0
scalar three_caches_scenario_3_links_network.node[5].content_store 	hits[5] 	0
scalar three_caches_scenario_3_links_network.node[5].content_store 	misses[5] 	10619
scalar three_caches_scenario_3_links_network.node[5].content_store 	decision_yes[5] 	0
scalar three_caches_scenario_3_links_network.node[5].content_store 	decision_no[5] 	10619
scalar three_caches_scenario_3_links_network.node[6].core_layer 	interests[6] 	10716
scalar three_caches_scenario_3_links_network.node[6].core_layer 	repo_load[6] 	10716
scalar three_caches_scenario_3_links_network.node[6].core_layer 	data[6] 	0
scalar three_caches_scenario_3_links_network.node[6].content_store 	p_hit[6] 	0
scalar three_caches_scenario_3_links_network.node[6].content_store 	hits[6] 	0
scalar three_caches_scenario_3_links_network.node[6].content_store 	misses[6] 	10716
scalar three_caches_scenario_3_links_network.node[6].content_store 	decision_yes[6] 	0
scalar three_caches_scenario_3_links_network.node[6].content_store 	decision_no[6] 	10716
scalar three_caches_scenario_3_links_network.client[0] 	hdistance[0] 	1.072931198346
scalar three_caches_scenario_3_links_network.client[0] 	downloads[0] 	179923
scalar three_caches_scenario_3_links_network.client[0] 	avg_time[0] 	0
scalar three_caches_scenario_3_links_network.client[0] 	interests_sent[0] 	179923
