version 2
run General-2518-20140502-05:54:07-11471
attr D costprob0.005
attr F nrr
attr R lru
attr a 1.2
attr configname General
attr csize 1e3
attr ctlg 1e5
attr datetime 20140502-05:54:07
attr experiment General
attr inifile omnetpp.ini
attr iterationvars "$net=three_caches_scenario_3_links, $rep=5, $priceratiovalue=2, $weights=0.2_0.4_0.4, $a=1.2, $ctlg=1e5, $F=nrr, $ttl=1000, $D=costprob0.005, $xi=1, $R=lru, $csize=1e3"
attr iterationvars2 "$net=three_caches_scenario_3_links, $rep=5, $priceratiovalue=2, $weights=0.2_0.4_0.4, $a=1.2, $ctlg=1e5, $F=nrr, $ttl=1000, $D=costprob0.005, $xi=1, $R=lru, $csize=1e3, $repetition=0"
attr measurement "$net=three_caches_scenario_3_links, $rep=5, $priceratiovalue=2, $weights=0.2_0.4_0.4, $a=1.2, $ctlg=1e5, $F=nrr, $ttl=1000, $D=costprob0.005, $xi=1, $R=lru, $csize=1e3"
attr net three_caches_scenario_3_links
attr network networks.${net=three_caches_scenario_3_links}_network
attr priceratiovalue 2
attr processid 11471
attr rep 5
attr repetition 0
attr replication #0
attr resultdir results
attr runnumber 2518
attr seedset 5
attr ttl 1000
attr weights 0.2_0.4_0.4
attr xi 1

scalar . 	a 	1.2
scalar . 	csize 	1e3
scalar . 	ctlg 	1e5
scalar . 	priceratiovalue 	2
scalar . 	rep 	5
scalar . 	ttl 	1000
scalar . 	xi 	1
scalar three_caches_scenario_3_links_network.content_distribution 	repo-0 	4
scalar three_caches_scenario_3_links_network.content_distribution 	repo-1 	5
scalar three_caches_scenario_3_links_network.content_distribution 	repo-2 	6
scalar three_caches_scenario_3_links_network.content_distribution 	client-0 	0
scalar three_caches_scenario_3_links_network.content_distribution 	repo-0_card 	19937
scalar three_caches_scenario_3_links_network.content_distribution 	repo-1_card 	40032
scalar three_caches_scenario_3_links_network.content_distribution 	repo-2_card 	40031
scalar three_caches_scenario_3_links_network.statistics 	p_hit 	0.15796610016026
scalar three_caches_scenario_3_links_network.statistics 	interests 	63110.285714286
scalar three_caches_scenario_3_links_network.statistics 	data 	37404
scalar three_caches_scenario_3_links_network.statistics 	hdistance 	1.5889665673765
scalar three_caches_scenario_3_links_network.statistics 	avg_time 	0
scalar three_caches_scenario_3_links_network.statistics 	downloads 	179944
scalar three_caches_scenario_3_links_network.statistics 	total_cost 	35572
scalar three_caches_scenario_3_links_network.statistics 	total_replicas 	100000
scalar three_caches_scenario_3_links_network.statistics 	interests_sent 	179944
scalar three_caches_scenario_3_links_network.node[0].core_layer 	interests[0] 	179944
scalar three_caches_scenario_3_links_network.node[0].core_layer 	data[0] 	151669
scalar three_caches_scenario_3_links_network.node[0].core_layer 	repo_int[0] 	110159
scalar three_caches_scenario_3_links_network.node[0].content_store 	p_hit[0] 	0.15713221891255
scalar three_caches_scenario_3_links_network.node[0].content_store 	hits[0] 	28275
scalar three_caches_scenario_3_links_network.node[0].content_store 	misses[0] 	151669
scalar three_caches_scenario_3_links_network.node[0].content_store 	decision_yes[0] 	127
scalar three_caches_scenario_3_links_network.node[0].content_store 	decision_no[0] 	151542
scalar three_caches_scenario_3_links_network.node[1].core_layer 	interests[1] 	86062
scalar three_caches_scenario_3_links_network.node[1].core_layer 	data[1] 	86062
scalar three_caches_scenario_3_links_network.node[1].content_store 	p_hit[1] 	0
scalar three_caches_scenario_3_links_network.node[1].content_store 	hits[1] 	0
scalar three_caches_scenario_3_links_network.node[1].content_store 	misses[1] 	86062
scalar three_caches_scenario_3_links_network.node[1].content_store 	decision_yes[1] 	0
scalar three_caches_scenario_3_links_network.node[1].content_store 	decision_no[1] 	86062
scalar three_caches_scenario_3_links_network.node[2].core_layer 	interests[2] 	29945
scalar three_caches_scenario_3_links_network.node[2].core_layer 	data[2] 	12622
scalar three_caches_scenario_3_links_network.node[2].content_store 	p_hit[2] 	0.5784939054934
scalar three_caches_scenario_3_links_network.node[2].content_store 	hits[2] 	17323
scalar three_caches_scenario_3_links_network.node[2].content_store 	misses[2] 	12622
scalar three_caches_scenario_3_links_network.node[2].content_store 	decision_yes[2] 	55
scalar three_caches_scenario_3_links_network.node[2].content_store 	decision_no[2] 	12567
scalar three_caches_scenario_3_links_network.node[3].core_layer 	interests[3] 	35662
scalar three_caches_scenario_3_links_network.node[3].core_layer 	data[3] 	11475
scalar three_caches_scenario_3_links_network.node[3].content_store 	p_hit[3] 	0.67822892714935
scalar three_caches_scenario_3_links_network.node[3].content_store 	hits[3] 	24187
scalar three_caches_scenario_3_links_network.node[3].content_store 	misses[3] 	11475
scalar three_caches_scenario_3_links_network.node[3].content_store 	decision_yes[3] 	89
scalar three_caches_scenario_3_links_network.node[3].content_store 	decision_no[3] 	11386
scalar three_caches_scenario_3_links_network.node[4].core_layer 	interests[4] 	86062
scalar three_caches_scenario_3_links_network.node[4].core_layer 	repo_load[4] 	86062
scalar three_caches_scenario_3_links_network.node[4].core_layer 	data[4] 	0
scalar three_caches_scenario_3_links_network.node[4].content_store 	p_hit[4] 	0
scalar three_caches_scenario_3_links_network.node[4].content_store 	hits[4] 	0
scalar three_caches_scenario_3_links_network.node[4].content_store 	misses[4] 	86062
scalar three_caches_scenario_3_links_network.node[4].content_store 	decision_yes[4] 	0
scalar three_caches_scenario_3_links_network.node[4].content_store 	decision_no[4] 	86062
scalar three_caches_scenario_3_links_network.node[5].core_layer 	interests[5] 	12622
scalar three_caches_scenario_3_links_network.node[5].core_layer 	repo_load[5] 	12622
scalar three_caches_scenario_3_links_network.node[5].core_layer 	data[5] 	0
scalar three_caches_scenario_3_links_network.node[5].content_store 	p_hit[5] 	0
scalar three_caches_scenario_3_links_network.node[5].content_store 	hits[5] 	0
scalar three_caches_scenario_3_links_network.node[5].content_store 	misses[5] 	12622
scalar three_caches_scenario_3_links_network.node[5].content_store 	decision_yes[5] 	0
scalar three_caches_scenario_3_links_network.node[5].content_store 	decision_no[5] 	12622
scalar three_caches_scenario_3_links_network.node[6].core_layer 	interests[6] 	11475
scalar three_caches_scenario_3_links_network.node[6].core_layer 	repo_load[6] 	11475
scalar three_caches_scenario_3_links_network.node[6].core_layer 	data[6] 	0
scalar three_caches_scenario_3_links_network.node[6].content_store 	p_hit[6] 	0
scalar three_caches_scenario_3_links_network.node[6].content_store 	hits[6] 	0
scalar three_caches_scenario_3_links_network.node[6].content_store 	misses[6] 	11475
scalar three_caches_scenario_3_links_network.node[6].content_store 	decision_yes[6] 	0
scalar three_caches_scenario_3_links_network.node[6].content_store 	decision_no[6] 	11475
scalar three_caches_scenario_3_links_network.client[0] 	hdistance[0] 	1.5889665673765
scalar three_caches_scenario_3_links_network.client[0] 	downloads[0] 	179944
scalar three_caches_scenario_3_links_network.client[0] 	avg_time[0] 	0
scalar three_caches_scenario_3_links_network.client[0] 	interests_sent[0] 	179944
