version 2
run General-4-20140512-16:42:43-30059
attr D costprobprodcorr0.01
attr F spr
attr R lru
attr a 1
attr configname General
attr csize 1e3
attr ctlg 1e5
attr datetime 20140512-16:42:43
attr experiment General
attr inifile omnetpp.ini
attr iterationvars "$net=abilene_cost, $rep=1, $priceratiovalue=10, $weights=0.333_0.333_0.334, $a=1, $ctlg=1e5, $F=spr, $ttl=1000, $D=costprobprodcorr0.01, $xi=1, $R=lru, $csize=1e3"
attr iterationvars2 "$net=abilene_cost, $rep=1, $priceratiovalue=10, $weights=0.333_0.333_0.334, $a=1, $ctlg=1e5, $F=spr, $ttl=1000, $D=costprobprodcorr0.01, $xi=1, $R=lru, $csize=1e3, $repetition=0"
attr measurement "$net=abilene_cost, $rep=1, $priceratiovalue=10, $weights=0.333_0.333_0.334, $a=1, $ctlg=1e5, $F=spr, $ttl=1000, $D=costprobprodcorr0.01, $xi=1, $R=lru, $csize=1e3"
attr net abilene_cost
attr network networks.${net=abilene_cost}_network
attr priceratiovalue 10
attr processid 30059
attr rep 1
attr repetition 0
attr replication #0
attr resultdir results
attr runnumber 4
attr seedset 1
attr ttl 1000
attr weights 0.333_0.333_0.334
attr xi 1

scalar . 	a 	1
scalar . 	csize 	1e3
scalar . 	ctlg 	1e5
scalar . 	priceratiovalue 	10
scalar . 	rep 	1
scalar . 	ttl 	1000
scalar . 	xi 	1
scalar abilene_cost_network.content_distribution 	repo-0 	11
scalar abilene_cost_network.content_distribution 	repo-1 	12
scalar abilene_cost_network.content_distribution 	repo-2 	13
scalar abilene_cost_network.content_distribution 	client-0 	3
scalar abilene_cost_network.content_distribution 	client-1 	7
scalar abilene_cost_network.content_distribution 	client-2 	10
scalar abilene_cost_network.content_distribution 	repo-0_card 	33396
scalar abilene_cost_network.content_distribution 	repo-1_card 	33039
scalar abilene_cost_network.content_distribution 	repo-2_card 	33565
scalar abilene_cost_network.statistics 	p_hit 	0.11057531031933
scalar abilene_cost_network.statistics 	interests 	144154.5
scalar abilene_cost_network.statistics 	data 	105650.85714286
scalar abilene_cost_network.statistics 	hdistance 	3.3300866880765
scalar abilene_cost_network.statistics 	avg_time 	0
scalar abilene_cost_network.statistics 	downloads 	539051
scalar abilene_cost_network.statistics 	total_cost 	930782
scalar abilene_cost_network.statistics 	total_replicas 	100000
scalar abilene_cost_network.statistics 	interests_sent 	539051
scalar abilene_cost_network.node[0].core_layer 	interests[0] 	153773
scalar abilene_cost_network.node[0].core_layer 	data[0] 	153773
scalar abilene_cost_network.node[0].core_layer 	repo_int[0] 	315892
scalar abilene_cost_network.node[0].content_store 	p_hit[0] 	0
scalar abilene_cost_network.node[0].content_store 	hits[0] 	0
scalar abilene_cost_network.node[0].content_store 	misses[0] 	153773
scalar abilene_cost_network.node[0].content_store 	decision_yes[0] 	0
scalar abilene_cost_network.node[0].content_store 	decision_no[0] 	153773
scalar abilene_cost_network.node[0].content_store 	decision_ratio[0] 	0
scalar abilene_cost_network.node[0].content_store 	correction_factor[0] 	0.0027225701061802
scalar abilene_cost_network.node[0].content_store 	xi[0] 	1
scalar abilene_cost_network.node[1].core_layer 	interests[1] 	103403
scalar abilene_cost_network.node[1].core_layer 	data[1] 	99362
scalar abilene_cost_network.node[1].content_store 	p_hit[1] 	0.039080104058876
scalar abilene_cost_network.node[1].content_store 	hits[1] 	4041
scalar abilene_cost_network.node[1].content_store 	misses[1] 	99362
scalar abilene_cost_network.node[1].content_store 	decision_yes[1] 	69
scalar abilene_cost_network.node[1].content_store 	decision_no[1] 	99293
scalar abilene_cost_network.node[1].content_store 	decision_ratio[1] 	0.00069443046637548
scalar abilene_cost_network.node[1].content_store 	correction_factor[1] 	0.0027225701061802
scalar abilene_cost_network.node[1].content_store 	xi[1] 	1
scalar abilene_cost_network.node[2].core_layer 	interests[2] 	99362
scalar abilene_cost_network.node[2].core_layer 	data[2] 	91023
scalar abilene_cost_network.node[2].content_store 	p_hit[2] 	0.083925444334856
scalar abilene_cost_network.node[2].content_store 	hits[2] 	8339
scalar abilene_cost_network.node[2].content_store 	misses[2] 	91023
scalar abilene_cost_network.node[2].content_store 	decision_yes[2] 	64
scalar abilene_cost_network.node[2].content_store 	decision_no[2] 	90959
scalar abilene_cost_network.node[2].content_store 	decision_ratio[2] 	0.00070311899190315
scalar abilene_cost_network.node[2].content_store 	correction_factor[2] 	0.0027225701061802
scalar abilene_cost_network.node[2].content_store 	xi[2] 	1
scalar abilene_cost_network.node[3].core_layer 	interests[3] 	219606
scalar abilene_cost_network.node[3].core_layer 	data[3] 	203112
scalar abilene_cost_network.node[3].content_store 	p_hit[3] 	0.075107237507172
scalar abilene_cost_network.node[3].content_store 	hits[3] 	16494
scalar abilene_cost_network.node[3].content_store 	misses[3] 	203112
scalar abilene_cost_network.node[3].content_store 	decision_yes[3] 	918
scalar abilene_cost_network.node[3].content_store 	decision_no[3] 	202194
scalar abilene_cost_network.node[3].content_store 	decision_ratio[3] 	0.0045196738745126
scalar abilene_cost_network.node[3].content_store 	correction_factor[3] 	0.0027225701061802
scalar abilene_cost_network.node[3].content_store 	xi[3] 	1
scalar abilene_cost_network.node[4].core_layer 	interests[4] 	80442
scalar abilene_cost_network.node[4].core_layer 	data[4] 	67805
scalar abilene_cost_network.node[4].content_store 	p_hit[4] 	0.1570945525969
scalar abilene_cost_network.node[4].content_store 	hits[4] 	12637
scalar abilene_cost_network.node[4].content_store 	misses[4] 	67805
scalar abilene_cost_network.node[4].content_store 	decision_yes[4] 	158
scalar abilene_cost_network.node[4].content_store 	decision_no[4] 	67647
scalar abilene_cost_network.node[4].content_store 	decision_ratio[4] 	0.00233021163631
scalar abilene_cost_network.node[4].content_store 	correction_factor[4] 	0.0027225701061802
scalar abilene_cost_network.node[4].content_store 	xi[4] 	1
scalar abilene_cost_network.node[5].core_layer 	interests[5] 	109058
scalar abilene_cost_network.node[5].core_layer 	data[5] 	76712
scalar abilene_cost_network.node[5].content_store 	p_hit[5] 	0.29659447266592
scalar abilene_cost_network.node[5].content_store 	hits[5] 	32346
scalar abilene_cost_network.node[5].content_store 	misses[5] 	76712
scalar abilene_cost_network.node[5].content_store 	decision_yes[5] 	211
scalar abilene_cost_network.node[5].content_store 	decision_no[5] 	76501
scalar abilene_cost_network.node[5].content_store 	decision_ratio[5] 	0.0027505475023464
scalar abilene_cost_network.node[5].content_store 	correction_factor[5] 	0.0027225701061802
scalar abilene_cost_network.node[5].content_store 	xi[5] 	1
scalar abilene_cost_network.node[6].core_layer 	interests[6] 	51063
scalar abilene_cost_network.node[6].core_layer 	data[6] 	41253
scalar abilene_cost_network.node[6].content_store 	p_hit[6] 	0.19211562187886
scalar abilene_cost_network.node[6].content_store 	hits[6] 	9810
scalar abilene_cost_network.node[6].content_store 	misses[6] 	41253
scalar abilene_cost_network.node[6].content_store 	decision_yes[6] 	74
scalar abilene_cost_network.node[6].content_store 	decision_no[6] 	41179
scalar abilene_cost_network.node[6].content_store 	decision_ratio[6] 	0.0017938089351077
scalar abilene_cost_network.node[6].content_store 	correction_factor[6] 	0.0027225701061802
scalar abilene_cost_network.node[6].content_store 	xi[6] 	1
scalar abilene_cost_network.node[7].core_layer 	interests[7] 	250919
scalar abilene_cost_network.node[7].core_layer 	data[7] 	228784
scalar abilene_cost_network.node[7].content_store 	p_hit[7] 	0.088215719016894
scalar abilene_cost_network.node[7].content_store 	hits[7] 	22135
scalar abilene_cost_network.node[7].content_store 	misses[7] 	228784
scalar abilene_cost_network.node[7].content_store 	decision_yes[7] 	1583
scalar abilene_cost_network.node[7].content_store 	decision_no[7] 	227201
scalar abilene_cost_network.node[7].content_store 	decision_ratio[7] 	0.0069191901531576
scalar abilene_cost_network.node[7].content_store 	correction_factor[7] 	0.0027225701061802
scalar abilene_cost_network.node[7].content_store 	xi[7] 	1
scalar abilene_cost_network.node[8].core_layer 	interests[8] 	177721
scalar abilene_cost_network.node[8].core_layer 	data[8] 	169071
scalar abilene_cost_network.node[8].content_store 	p_hit[8] 	0.048671794554386
scalar abilene_cost_network.node[8].content_store 	hits[8] 	8650
scalar abilene_cost_network.node[8].content_store 	misses[8] 	169071
scalar abilene_cost_network.node[8].content_store 	decision_yes[8] 	1474
scalar abilene_cost_network.node[8].content_store 	decision_no[8] 	167597
scalar abilene_cost_network.node[8].content_store 	decision_ratio[8] 	0.0087182308024439
scalar abilene_cost_network.node[8].content_store 	correction_factor[8] 	0.0027225701061802
scalar abilene_cost_network.node[8].content_store 	xi[8] 	1
scalar abilene_cost_network.node[9].core_layer 	interests[9] 	225929
scalar abilene_cost_network.node[9].core_layer 	data[9] 	136585
scalar abilene_cost_network.node[9].content_store 	p_hit[9] 	0.39545166844451
scalar abilene_cost_network.node[9].content_store 	hits[9] 	89344
scalar abilene_cost_network.node[9].content_store 	misses[9] 	136585
scalar abilene_cost_network.node[9].content_store 	decision_yes[9] 	2361
scalar abilene_cost_network.node[9].content_store 	decision_no[9] 	134224
scalar abilene_cost_network.node[9].content_store 	decision_ratio[9] 	0.017285939158766
scalar abilene_cost_network.node[9].content_store 	correction_factor[9] 	0.0027225701061802
scalar abilene_cost_network.node[9].content_store 	xi[9] 	1
scalar abilene_cost_network.node[10].core_layer 	interests[10] 	230995
scalar abilene_cost_network.node[10].core_layer 	data[10] 	211632
scalar abilene_cost_network.node[10].content_store 	p_hit[10] 	0.083824325201844
scalar abilene_cost_network.node[10].content_store 	hits[10] 	19363
scalar abilene_cost_network.node[10].content_store 	misses[10] 	211632
scalar abilene_cost_network.node[10].content_store 	decision_yes[10] 	850
scalar abilene_cost_network.node[10].content_store 	decision_no[10] 	210782
scalar abilene_cost_network.node[10].content_store 	decision_ratio[10] 	0.0040164058365465
scalar abilene_cost_network.node[10].content_store 	correction_factor[10] 	0.0027225701061802
scalar abilene_cost_network.node[10].content_store 	xi[10] 	1
scalar abilene_cost_network.node[11].core_layer 	interests[11] 	153773
scalar abilene_cost_network.node[11].core_layer 	repo_load[11] 	153773
scalar abilene_cost_network.node[11].core_layer 	data[11] 	0
scalar abilene_cost_network.node[11].content_store 	p_hit[11] 	0
scalar abilene_cost_network.node[11].content_store 	hits[11] 	0
scalar abilene_cost_network.node[11].content_store 	misses[11] 	153773
scalar abilene_cost_network.node[11].content_store 	decision_yes[11] 	0
scalar abilene_cost_network.node[11].content_store 	decision_no[11] 	153773
scalar abilene_cost_network.node[11].content_store 	decision_ratio[11] 	0
scalar abilene_cost_network.node[12].core_layer 	interests[12] 	76712
scalar abilene_cost_network.node[12].core_layer 	repo_load[12] 	76712
scalar abilene_cost_network.node[12].core_layer 	data[12] 	0
scalar abilene_cost_network.node[12].content_store 	p_hit[12] 	0
scalar abilene_cost_network.node[12].content_store 	hits[12] 	0
scalar abilene_cost_network.node[12].content_store 	misses[12] 	76712
scalar abilene_cost_network.node[12].content_store 	decision_yes[12] 	0
scalar abilene_cost_network.node[12].content_store 	decision_no[12] 	76712
scalar abilene_cost_network.node[12].content_store 	decision_ratio[12] 	0
scalar abilene_cost_network.node[13].core_layer 	interests[13] 	85407
scalar abilene_cost_network.node[13].core_layer 	repo_load[13] 	85407
scalar abilene_cost_network.node[13].core_layer 	data[13] 	0
scalar abilene_cost_network.node[13].content_store 	p_hit[13] 	0
scalar abilene_cost_network.node[13].content_store 	hits[13] 	0
scalar abilene_cost_network.node[13].content_store 	misses[13] 	85407
scalar abilene_cost_network.node[13].content_store 	decision_yes[13] 	0
scalar abilene_cost_network.node[13].content_store 	decision_no[13] 	85407
scalar abilene_cost_network.node[13].content_store 	decision_ratio[13] 	0
scalar abilene_cost_network.client[3] 	hdistance[3] 	3.5549047746184
scalar abilene_cost_network.client[3] 	downloads[3] 	179784
scalar abilene_cost_network.client[3] 	avg_time[3] 	0
scalar abilene_cost_network.client[3] 	interests_sent[3] 	179784
scalar abilene_cost_network.client[7] 	hdistance[7] 	3.5348286430761
scalar abilene_cost_network.client[7] 	downloads[7] 	179450
scalar abilene_cost_network.client[7] 	avg_time[7] 	0
scalar abilene_cost_network.client[7] 	interests_sent[7] 	179450
scalar abilene_cost_network.client[10] 	hdistance[10] 	2.9005266465351
scalar abilene_cost_network.client[10] 	downloads[10] 	179817
scalar abilene_cost_network.client[10] 	avg_time[10] 	0
scalar abilene_cost_network.client[10] 	interests_sent[10] 	179817
