version 2
run General-2689-20140423-19:39:55-28834
attr D lce
attr F nrr
attr R lru
attr a 1.2
attr configname General
attr csize 2
attr ctlg 10^3
attr datetime 20140423-19:39:55
attr experiment General
attr inifile omnetpp.ini
attr iterationvars "$net=simple_scenario, $rep=8, $priceratiovalue=5, $a=1.2, $ctlg=10^3, $F=nrr, $ttl=1000, $D=lce, $R=lru, $csize=2"
attr iterationvars2 "$net=simple_scenario, $rep=8, $priceratiovalue=5, $a=1.2, $ctlg=10^3, $F=nrr, $ttl=1000, $D=lce, $R=lru, $csize=2, $repetition=0"
attr measurement "$net=simple_scenario, $rep=8, $priceratiovalue=5, $a=1.2, $ctlg=10^3, $F=nrr, $ttl=1000, $D=lce, $R=lru, $csize=2"
attr net simple_scenario
attr network networks.${net=simple_scenario}_network
attr priceratiovalue 5
attr processid 28834
attr rep 8
attr repetition 0
attr replication #0
attr resultdir results
attr runnumber 2689
attr seedset 8
attr ttl 1000

scalar . 	a 	1.2
scalar . 	csize 	2
scalar . 	priceratiovalue 	5
scalar . 	rep 	8
scalar . 	ttl 	1000
scalar simple_scenario_network.content_distribution 	repo-0 	3
scalar simple_scenario_network.content_distribution 	repo-1 	4
scalar simple_scenario_network.content_distribution 	client-0 	0
scalar simple_scenario_network.content_distribution 	repo-0_card 	485
scalar simple_scenario_network.content_distribution 	repo-1_card 	515
scalar simple_scenario_network.statistics 	p_hit 	0.084258988446057
scalar simple_scenario_network.statistics 	interests 	95049.8
scalar simple_scenario_network.statistics 	data 	59057
scalar simple_scenario_network.statistics 	hdistance 	2.4182892133983
scalar simple_scenario_network.statistics 	avg_time 	0.001985013186
scalar simple_scenario_network.statistics 	downloads 	179964
scalar simple_scenario_network.statistics 	total_cost 	80125
scalar simple_scenario_network.node[0].core_layer 	interests[0] 	179964
scalar simple_scenario_network.node[0].core_layer 	data[0] 	155365
scalar simple_scenario_network.node[0].core_layer 	repo_int[0] 	139920
scalar simple_scenario_network.node[0].content_store 	p_hit[0] 	0.13668844880087
scalar simple_scenario_network.node[0].content_store 	hits[0] 	24599
scalar simple_scenario_network.node[0].content_store 	misses[0] 	155365
scalar simple_scenario_network.node[1].core_layer 	interests[1] 	61150
scalar simple_scenario_network.node[1].core_layer 	data[1] 	54711
scalar simple_scenario_network.node[1].content_store 	p_hit[1] 	0.10529844644317
scalar simple_scenario_network.node[1].content_store 	hits[1] 	6439
scalar simple_scenario_network.node[1].content_store 	misses[1] 	54711
scalar simple_scenario_network.node[2].core_layer 	interests[2] 	94215
scalar simple_scenario_network.node[2].core_layer 	data[2] 	85209
scalar simple_scenario_network.node[2].content_store 	p_hit[2] 	0.09558987422385
scalar simple_scenario_network.node[2].content_store 	hits[2] 	9006
scalar simple_scenario_network.node[2].content_store 	misses[2] 	85209
scalar simple_scenario_network.node[3].core_layer 	interests[3] 	54711
scalar simple_scenario_network.node[3].core_layer 	repo_load[3] 	54711
scalar simple_scenario_network.node[3].core_layer 	data[3] 	0
scalar simple_scenario_network.node[3].content_store 	p_hit[3] 	0
scalar simple_scenario_network.node[3].content_store 	hits[3] 	0
scalar simple_scenario_network.node[3].content_store 	misses[3] 	54711
scalar simple_scenario_network.node[4].core_layer 	interests[4] 	85209
scalar simple_scenario_network.node[4].core_layer 	repo_load[4] 	85209
scalar simple_scenario_network.node[4].core_layer 	data[4] 	0
scalar simple_scenario_network.node[4].content_store 	p_hit[4] 	0
scalar simple_scenario_network.node[4].content_store 	hits[4] 	0
scalar simple_scenario_network.node[4].content_store 	misses[4] 	85209
scalar simple_scenario_network.client[0] 	hdistance[0] 	2.4182892133983
scalar simple_scenario_network.client[0] 	downloads[0] 	179964
scalar simple_scenario_network.client[0] 	avg_time[0] 	0.001985013186
