version 2
run General-0-20140623-17:23:50-5426
attr D lce
attr F nrr
attr R lru
attr a 1
attr configname General
attr csize 5
attr ctlg 1e3
attr datetime 20140623-17:23:50
attr experiment General
attr inifile omnetpp.ini
attr iterationvars "$net=abilene_cost, $rep=1, $priceratiovalue=10, $weights=0.333_0.333_0.334, $lambda=1, $a=1, $ctlg=1e3, $F=nrr, $ttl=1000, $D=lce, $xi=1, $R=lru, $csize=5, $pricebits=0, $mytime=1800"
attr iterationvars2 "$net=abilene_cost, $rep=1, $priceratiovalue=10, $weights=0.333_0.333_0.334, $lambda=1, $a=1, $ctlg=1e3, $F=nrr, $ttl=1000, $D=lce, $xi=1, $R=lru, $csize=5, $pricebits=0, $mytime=1800, $repetition=0"
attr lambda 1
attr measurement "$net=abilene_cost, $rep=1, $priceratiovalue=10, $weights=0.333_0.333_0.334, $lambda=1, $a=1, $ctlg=1e3, $F=nrr, $ttl=1000, $D=lce, $xi=1, $R=lru, $csize=5, $pricebits=0, $mytime=1800"
attr mytime 1800
attr net abilene_cost
attr network networks.${net=abilene_cost}_network
attr pricebits 0
attr priceratiovalue 10
attr processid 5426
attr rep 1
attr repetition 0
attr replication #0
attr resultdir results
attr runnumber 0
attr seedset 1
attr ttl 1000
attr weights 0.333_0.333_0.334
attr xi 1

scalar . 	a 	1
scalar . 	csize 	5
scalar . 	ctlg 	1e3
scalar . 	lambda 	1
scalar . 	mytime 	1800
scalar . 	pricebits 	0
scalar . 	priceratiovalue 	10
scalar . 	rep 	1
scalar . 	ttl 	1000
scalar . 	xi 	1
scalar abilene_cost_network.content_distribution 	repo-0 	11
scalar abilene_cost_network.content_distribution 	repo-1 	12
scalar abilene_cost_network.content_distribution 	repo-2 	13
scalar abilene_cost_network.content_distribution 	client-0 	5
scalar abilene_cost_network.content_distribution 	client-1 	0
scalar abilene_cost_network.content_distribution 	client-2 	9
scalar abilene_cost_network.content_distribution 	repo-0_card 	324
scalar abilene_cost_network.content_distribution 	repo-1_card 	344
scalar abilene_cost_network.content_distribution 	repo-2_card 	332
scalar abilene_cost_network.statistics 	stabilization_time 	123.7
scalar abilene_cost_network.node[1].face$o[4].channel 	price[1] 	0
scalar abilene_cost_network.node[1].face$o[4].channel 	represented_price[1] 	0
scalar abilene_cost_network.node[7].face$o[4].channel 	price[7] 	0
scalar abilene_cost_network.node[7].face$o[4].channel 	represented_price[7] 	0
scalar abilene_cost_network.node[10].face$o[4].channel 	price[10] 	0
scalar abilene_cost_network.node[10].face$o[4].channel 	represented_price[10] 	0
scalar abilene_cost_network.node[11].face$o[1].channel 	price[11] 	0
scalar abilene_cost_network.node[11].face$o[1].channel 	represented_price[11] 	0
scalar abilene_cost_network.node[12].face$o[1].channel 	price[12] 	1
scalar abilene_cost_network.node[12].face$o[1].channel 	represented_price[12] 	1
scalar abilene_cost_network.node[13].face$o[1].channel 	price[13] 	10
scalar abilene_cost_network.node[13].face$o[1].channel 	represented_price[13] 	10
scalar abilene_cost_network.statistics 	p_hit 	0.026229651289661
scalar abilene_cost_network.statistics 	interests 	1636.6428571429
scalar abilene_cost_network.statistics 	data 	1252.8571428571
scalar abilene_cost_network.statistics 	hdistance 	4.1419488531968
scalar abilene_cost_network.statistics 	avg_time 	6.4632e-08
scalar abilene_cost_network.statistics 	downloads 	5373
scalar abilene_cost_network.statistics 	total_cost 	21585
scalar abilene_cost_network.statistics 	total_replicas 	1000
scalar abilene_cost_network.statistics 	inner_hit 	0.11185557416713
scalar abilene_cost_network.statistics 	interests_sent 	5373
scalar abilene_cost_network.node[0].core_layer 	interests[0] 	1775
scalar abilene_cost_network.node[0].core_layer 	data[0] 	1702
scalar abilene_cost_network.node[0].core_layer 	repo_int[0] 	4772
scalar abilene_cost_network.node[0].content_store 	p_hit[0] 	0.04112676056338
scalar abilene_cost_network.node[0].content_store 	hits[0] 	73
scalar abilene_cost_network.node[0].content_store 	misses[0] 	1702
scalar abilene_cost_network.node[0].content_store 	decision_yes[0] 	1702
scalar abilene_cost_network.node[0].content_store 	decision_no[0] 	0
scalar abilene_cost_network.node[0].content_store 	decision_ratio[0] 	1
scalar abilene_cost_network.node[1].core_layer 	interests[1] 	3116
scalar abilene_cost_network.node[1].core_layer 	data[1] 	3037
scalar abilene_cost_network.node[1].content_store 	p_hit[1] 	0.025353016688062
scalar abilene_cost_network.node[1].content_store 	hits[1] 	79
scalar abilene_cost_network.node[1].content_store 	misses[1] 	3037
scalar abilene_cost_network.node[1].content_store 	decision_yes[1] 	3037
scalar abilene_cost_network.node[1].content_store 	decision_no[1] 	0
scalar abilene_cost_network.node[1].content_store 	decision_ratio[1] 	1
scalar abilene_cost_network.node[2].core_layer 	interests[2] 	1775
scalar abilene_cost_network.node[2].core_layer 	data[2] 	1718
scalar abilene_cost_network.node[2].content_store 	p_hit[2] 	0.032112676056338
scalar abilene_cost_network.node[2].content_store 	hits[2] 	57
scalar abilene_cost_network.node[2].content_store 	misses[2] 	1718
scalar abilene_cost_network.node[2].content_store 	decision_yes[2] 	1718
scalar abilene_cost_network.node[2].content_store 	decision_no[2] 	0
scalar abilene_cost_network.node[2].content_store 	decision_ratio[2] 	1
scalar abilene_cost_network.node[3].core_layer 	interests[3] 	1699
scalar abilene_cost_network.node[3].core_layer 	data[3] 	1694
scalar abilene_cost_network.node[3].content_store 	p_hit[3] 	0.0029429075927016
scalar abilene_cost_network.node[3].content_store 	hits[3] 	5
scalar abilene_cost_network.node[3].content_store 	misses[3] 	1694
scalar abilene_cost_network.node[3].content_store 	decision_yes[3] 	1694
scalar abilene_cost_network.node[3].content_store 	decision_no[3] 	0
scalar abilene_cost_network.node[3].content_store 	decision_ratio[3] 	1
scalar abilene_cost_network.node[4].core_layer 	interests[4] 	1218
scalar abilene_cost_network.node[4].core_layer 	data[4] 	1191
scalar abilene_cost_network.node[4].content_store 	p_hit[4] 	0.022167487684729
scalar abilene_cost_network.node[4].content_store 	hits[4] 	27
scalar abilene_cost_network.node[4].content_store 	misses[4] 	1191
scalar abilene_cost_network.node[4].content_store 	decision_yes[4] 	1191
scalar abilene_cost_network.node[4].content_store 	decision_no[4] 	0
scalar abilene_cost_network.node[4].content_store 	decision_ratio[4] 	1
scalar abilene_cost_network.node[5].core_layer 	interests[5] 	1838
scalar abilene_cost_network.node[5].core_layer 	data[5] 	1757
scalar abilene_cost_network.node[5].content_store 	p_hit[5] 	0.044069640914037
scalar abilene_cost_network.node[5].content_store 	hits[5] 	81
scalar abilene_cost_network.node[5].content_store 	misses[5] 	1757
scalar abilene_cost_network.node[5].content_store 	decision_yes[5] 	1757
scalar abilene_cost_network.node[5].content_store 	decision_no[5] 	0
scalar abilene_cost_network.node[5].content_store 	decision_ratio[5] 	1
scalar abilene_cost_network.node[6].core_layer 	interests[6] 	592
scalar abilene_cost_network.node[6].core_layer 	data[6] 	541
scalar abilene_cost_network.node[6].content_store 	p_hit[6] 	0.086148648648649
scalar abilene_cost_network.node[6].content_store 	hits[6] 	51
scalar abilene_cost_network.node[6].content_store 	misses[6] 	541
scalar abilene_cost_network.node[6].content_store 	decision_yes[6] 	541
scalar abilene_cost_network.node[6].content_store 	decision_no[6] 	0
scalar abilene_cost_network.node[6].content_store 	decision_ratio[6] 	1
scalar abilene_cost_network.node[7].core_layer 	interests[7] 	1537
scalar abilene_cost_network.node[7].core_layer 	data[7] 	1511
scalar abilene_cost_network.node[7].content_store 	p_hit[7] 	0.016916070266753
scalar abilene_cost_network.node[7].content_store 	hits[7] 	26
scalar abilene_cost_network.node[7].content_store 	misses[7] 	1511
scalar abilene_cost_network.node[7].content_store 	decision_yes[7] 	1511
scalar abilene_cost_network.node[7].content_store 	decision_no[7] 	0
scalar abilene_cost_network.node[7].content_store 	decision_ratio[7] 	1
scalar abilene_cost_network.node[8].core_layer 	interests[8] 	642
scalar abilene_cost_network.node[8].core_layer 	data[8] 	569
scalar abilene_cost_network.node[8].content_store 	p_hit[8] 	0.11370716510903
scalar abilene_cost_network.node[8].content_store 	hits[8] 	73
scalar abilene_cost_network.node[8].content_store 	misses[8] 	569
scalar abilene_cost_network.node[8].content_store 	decision_yes[8] 	569
scalar abilene_cost_network.node[8].content_store 	decision_no[8] 	0
scalar abilene_cost_network.node[8].content_store 	decision_ratio[8] 	1
scalar abilene_cost_network.node[9].core_layer 	interests[9] 	1851
scalar abilene_cost_network.node[9].core_layer 	data[9] 	1752
scalar abilene_cost_network.node[9].content_store 	p_hit[9] 	0.053484602917342
scalar abilene_cost_network.node[9].content_store 	hits[9] 	99
scalar abilene_cost_network.node[9].content_store 	misses[9] 	1752
scalar abilene_cost_network.node[9].content_store 	decision_yes[9] 	1752
scalar abilene_cost_network.node[9].content_store 	decision_no[9] 	0
scalar abilene_cost_network.node[9].content_store 	decision_ratio[9] 	1
scalar abilene_cost_network.node[10].core_layer 	interests[10] 	2098
scalar abilene_cost_network.node[10].core_layer 	data[10] 	2068
scalar abilene_cost_network.node[10].content_store 	p_hit[10] 	0.014299332697807
scalar abilene_cost_network.node[10].content_store 	hits[10] 	30
scalar abilene_cost_network.node[10].content_store 	misses[10] 	2068
scalar abilene_cost_network.node[10].content_store 	decision_yes[10] 	2068
scalar abilene_cost_network.node[10].content_store 	decision_no[10] 	0
scalar abilene_cost_network.node[10].content_store 	decision_ratio[10] 	1
scalar abilene_cost_network.node[11].core_layer 	interests[11] 	1331
scalar abilene_cost_network.node[11].core_layer 	repo_load[11] 	1331
scalar abilene_cost_network.node[11].core_layer 	data[11] 	0
scalar abilene_cost_network.node[11].content_store 	p_hit[11] 	0
scalar abilene_cost_network.node[11].content_store 	hits[11] 	0
scalar abilene_cost_network.node[11].content_store 	misses[11] 	1331
scalar abilene_cost_network.node[11].content_store 	decision_yes[11] 	0
scalar abilene_cost_network.node[11].content_store 	decision_no[11] 	1331
scalar abilene_cost_network.node[11].content_store 	decision_ratio[11] 	0
scalar abilene_cost_network.node[12].core_layer 	interests[12] 	1425
scalar abilene_cost_network.node[12].core_layer 	repo_load[12] 	1425
scalar abilene_cost_network.node[12].core_layer 	data[12] 	0
scalar abilene_cost_network.node[12].content_store 	p_hit[12] 	0
scalar abilene_cost_network.node[12].content_store 	hits[12] 	0
scalar abilene_cost_network.node[12].content_store 	misses[12] 	1425
scalar abilene_cost_network.node[12].content_store 	decision_yes[12] 	0
scalar abilene_cost_network.node[12].content_store 	decision_no[12] 	1425
scalar abilene_cost_network.node[12].content_store 	decision_ratio[12] 	0
scalar abilene_cost_network.node[13].core_layer 	interests[13] 	2016
scalar abilene_cost_network.node[13].core_layer 	repo_load[13] 	2016
scalar abilene_cost_network.node[13].core_layer 	data[13] 	0
scalar abilene_cost_network.node[13].content_store 	p_hit[13] 	0
scalar abilene_cost_network.node[13].content_store 	hits[13] 	0
scalar abilene_cost_network.node[13].content_store 	misses[13] 	2016
scalar abilene_cost_network.node[13].content_store 	decision_yes[13] 	0
scalar abilene_cost_network.node[13].content_store 	decision_no[13] 	2016
scalar abilene_cost_network.node[13].content_store 	decision_ratio[13] 	0
scalar abilene_cost_network.client[0] 	hdistance[0] 	3.680412371134
scalar abilene_cost_network.client[0] 	downloads[0] 	1746
scalar abilene_cost_network.client[0] 	avg_time[0] 	5.5407e-08
scalar abilene_cost_network.client[0] 	interests_sent[0] 	1746
scalar abilene_cost_network.client[5] 	hdistance[5] 	5.2746170678337
scalar abilene_cost_network.client[5] 	downloads[5] 	1828
scalar abilene_cost_network.client[5] 	avg_time[5] 	8.7232e-08
scalar abilene_cost_network.client[5] 	interests_sent[5] 	1828
scalar abilene_cost_network.client[9] 	hdistance[9] 	3.4708171206226
scalar abilene_cost_network.client[9] 	downloads[9] 	1799
scalar abilene_cost_network.client[9] 	avg_time[9] 	5.1257e-08
scalar abilene_cost_network.client[9] 	interests_sent[9] 	1799
