version 2
run General-1868-20140502-04:40:25-10801
attr D costprob0.001
attr F nrr
attr R lru
attr a 1.2
attr configname General
attr csize 1e3
attr ctlg 1e5
attr datetime 20140502-04:40:25
attr experiment General
attr inifile omnetpp.ini
attr iterationvars "$net=three_caches_scenario_3_links, $rep=4, $priceratiovalue=1, $weights=0_0.5_0.5, $a=1.2, $ctlg=1e5, $F=nrr, $ttl=1000, $D=costprob0.001, $xi=1, $R=lru, $csize=1e3"
attr iterationvars2 "$net=three_caches_scenario_3_links, $rep=4, $priceratiovalue=1, $weights=0_0.5_0.5, $a=1.2, $ctlg=1e5, $F=nrr, $ttl=1000, $D=costprob0.001, $xi=1, $R=lru, $csize=1e3, $repetition=0"
attr measurement "$net=three_caches_scenario_3_links, $rep=4, $priceratiovalue=1, $weights=0_0.5_0.5, $a=1.2, $ctlg=1e5, $F=nrr, $ttl=1000, $D=costprob0.001, $xi=1, $R=lru, $csize=1e3"
attr net three_caches_scenario_3_links
attr network networks.${net=three_caches_scenario_3_links}_network
attr priceratiovalue 1
attr processid 10801
attr rep 4
attr repetition 0
attr replication #0
attr resultdir results
attr runnumber 1868
attr seedset 4
attr ttl 1000
attr weights 0_0.5_0.5
attr xi 1

scalar . 	a 	1.2
scalar . 	csize 	1e3
scalar . 	ctlg 	1e5
scalar . 	priceratiovalue 	1
scalar . 	rep 	4
scalar . 	ttl 	1000
scalar . 	xi 	1
scalar three_caches_scenario_3_links_network.content_distribution 	repo-0 	4
scalar three_caches_scenario_3_links_network.content_distribution 	repo-1 	5
scalar three_caches_scenario_3_links_network.content_distribution 	repo-2 	6
scalar three_caches_scenario_3_links_network.content_distribution 	client-0 	0
scalar three_caches_scenario_3_links_network.content_distribution 	repo-0_card 	0
scalar three_caches_scenario_3_links_network.content_distribution 	repo-1_card 	50243
scalar three_caches_scenario_3_links_network.content_distribution 	repo-2_card 	49757
scalar three_caches_scenario_3_links_network.statistics 	p_hit 	0.43660697814198
scalar three_caches_scenario_3_links_network.statistics 	interests 	48011.142857143
scalar three_caches_scenario_3_links_network.statistics 	data 	22238.857142857
scalar three_caches_scenario_3_links_network.statistics 	hdistance 	1.049543806747
scalar three_caches_scenario_3_links_network.statistics 	avg_time 	0
scalar three_caches_scenario_3_links_network.statistics 	downloads 	180406
scalar three_caches_scenario_3_links_network.statistics 	total_cost 	33672
scalar three_caches_scenario_3_links_network.statistics 	total_replicas 	100000
scalar three_caches_scenario_3_links_network.statistics 	interests_sent 	180406
scalar three_caches_scenario_3_links_network.node[0].core_layer 	interests[0] 	180406
scalar three_caches_scenario_3_links_network.node[0].core_layer 	data[0] 	122000
scalar three_caches_scenario_3_links_network.node[0].core_layer 	repo_int[0] 	33672
scalar three_caches_scenario_3_links_network.node[0].content_store 	p_hit[0] 	0.3237475471991
scalar three_caches_scenario_3_links_network.node[0].content_store 	hits[0] 	58406
scalar three_caches_scenario_3_links_network.node[0].content_store 	misses[0] 	122000
scalar three_caches_scenario_3_links_network.node[0].content_store 	decision_yes[0] 	34
scalar three_caches_scenario_3_links_network.node[0].content_store 	decision_no[0] 	121966
scalar three_caches_scenario_3_links_network.node[1].core_layer 	interests[1] 	0
scalar three_caches_scenario_3_links_network.node[1].core_layer 	data[1] 	0
scalar three_caches_scenario_3_links_network.node[1].content_store 	p_hit[1] 	-nan
scalar three_caches_scenario_3_links_network.node[1].content_store 	hits[1] 	0
scalar three_caches_scenario_3_links_network.node[1].content_store 	misses[1] 	0
scalar three_caches_scenario_3_links_network.node[1].content_store 	decision_yes[1] 	0
scalar three_caches_scenario_3_links_network.node[1].content_store 	decision_no[1] 	0
scalar three_caches_scenario_3_links_network.node[2].core_layer 	interests[2] 	89791
scalar three_caches_scenario_3_links_network.node[2].core_layer 	data[2] 	16750
scalar three_caches_scenario_3_links_network.node[2].content_store 	p_hit[2] 	0.81345569155038
scalar three_caches_scenario_3_links_network.node[2].content_store 	hits[2] 	73041
scalar three_caches_scenario_3_links_network.node[2].content_store 	misses[2] 	16750
scalar three_caches_scenario_3_links_network.node[2].content_store 	decision_yes[2] 	20
scalar three_caches_scenario_3_links_network.node[2].content_store 	decision_no[2] 	16730
scalar three_caches_scenario_3_links_network.node[3].core_layer 	interests[3] 	32209
scalar three_caches_scenario_3_links_network.node[3].core_layer 	data[3] 	16922
scalar three_caches_scenario_3_links_network.node[3].content_store 	p_hit[3] 	0.47461889533981
scalar three_caches_scenario_3_links_network.node[3].content_store 	hits[3] 	15287
scalar three_caches_scenario_3_links_network.node[3].content_store 	misses[3] 	16922
scalar three_caches_scenario_3_links_network.node[3].content_store 	decision_yes[3] 	20
scalar three_caches_scenario_3_links_network.node[3].content_store 	decision_no[3] 	16902
scalar three_caches_scenario_3_links_network.node[4].core_layer 	interests[4] 	0
scalar three_caches_scenario_3_links_network.node[4].core_layer 	data[4] 	0
scalar three_caches_scenario_3_links_network.node[4].content_store 	p_hit[4] 	-nan
scalar three_caches_scenario_3_links_network.node[4].content_store 	hits[4] 	0
scalar three_caches_scenario_3_links_network.node[4].content_store 	misses[4] 	0
scalar three_caches_scenario_3_links_network.node[4].content_store 	decision_yes[4] 	0
scalar three_caches_scenario_3_links_network.node[4].content_store 	decision_no[4] 	0
scalar three_caches_scenario_3_links_network.node[5].core_layer 	interests[5] 	16750
scalar three_caches_scenario_3_links_network.node[5].core_layer 	repo_load[5] 	16750
scalar three_caches_scenario_3_links_network.node[5].core_layer 	data[5] 	0
scalar three_caches_scenario_3_links_network.node[5].content_store 	p_hit[5] 	0
scalar three_caches_scenario_3_links_network.node[5].content_store 	hits[5] 	0
scalar three_caches_scenario_3_links_network.node[5].content_store 	misses[5] 	16750
scalar three_caches_scenario_3_links_network.node[5].content_store 	decision_yes[5] 	0
scalar three_caches_scenario_3_links_network.node[5].content_store 	decision_no[5] 	16750
scalar three_caches_scenario_3_links_network.node[6].core_layer 	interests[6] 	16922
scalar three_caches_scenario_3_links_network.node[6].core_layer 	repo_load[6] 	16922
scalar three_caches_scenario_3_links_network.node[6].core_layer 	data[6] 	0
scalar three_caches_scenario_3_links_network.node[6].content_store 	p_hit[6] 	0
scalar three_caches_scenario_3_links_network.node[6].content_store 	hits[6] 	0
scalar three_caches_scenario_3_links_network.node[6].content_store 	misses[6] 	16922
scalar three_caches_scenario_3_links_network.node[6].content_store 	decision_yes[6] 	0
scalar three_caches_scenario_3_links_network.node[6].content_store 	decision_no[6] 	16922
scalar three_caches_scenario_3_links_network.client[0] 	hdistance[0] 	1.049543806747
scalar three_caches_scenario_3_links_network.client[0] 	downloads[0] 	180406
scalar three_caches_scenario_3_links_network.client[0] 	avg_time[0] 	0
scalar three_caches_scenario_3_links_network.client[0] 	interests_sent[0] 	180406
