version 2
run General-2128-20140422-20:24:10-16860
attr D costprob0.1
attr F nrr
attr R lru
attr a 0
attr configname General
attr csize 10
attr ctlg 10^3
attr datetime 20140422-20:24:10
attr experiment General
attr inifile omnetpp.ini
attr iterationvars "$net=simple_scenario, $rep=18, $priceratiovalue=8, $a=0, $ctlg=10^3, $F=nrr, $ttl=1000, $D=costprob0.1, $R=lru, $csize=10"
attr iterationvars2 "$net=simple_scenario, $rep=18, $priceratiovalue=8, $a=0, $ctlg=10^3, $F=nrr, $ttl=1000, $D=costprob0.1, $R=lru, $csize=10, $repetition=0"
attr measurement "$net=simple_scenario, $rep=18, $priceratiovalue=8, $a=0, $ctlg=10^3, $F=nrr, $ttl=1000, $D=costprob0.1, $R=lru, $csize=10"
attr net simple_scenario
attr network networks.${net=simple_scenario}_network
attr priceratiovalue 8
attr processid 16860
attr rep 18
attr repetition 0
attr replication #0
attr resultdir results
attr runnumber 2128
attr seedset 18
attr ttl 1000

scalar . 	a 	0
scalar . 	csize 	10
scalar . 	priceratiovalue 	8
scalar . 	rep 	18
scalar . 	ttl 	1000
scalar simple_scenario_network.content_distribution 	repo-0 	3
scalar simple_scenario_network.content_distribution 	repo-1 	4
scalar simple_scenario_network.content_distribution 	client-0 	0
scalar simple_scenario_network.content_distribution 	repo-0_card 	499
scalar simple_scenario_network.content_distribution 	repo-1_card 	501
scalar simple_scenario_network.statistics 	p_hit 	0.010160761579163
scalar simple_scenario_network.statistics 	interests 	106704.6
scalar simple_scenario_network.statistics 	data 	70654.4
scalar simple_scenario_network.statistics 	hdistance 	2.9298145363965
scalar simple_scenario_network.statistics 	avg_time 	0.001999749459
scalar simple_scenario_network.statistics 	downloads 	180251
scalar simple_scenario_network.statistics 	total_cost 	86938
scalar simple_scenario_network.node[0].core_layer 	interests[0] 	180251
scalar simple_scenario_network.node[0].core_layer 	data[0] 	178442
scalar simple_scenario_network.node[0].core_layer 	repo_int[0] 	174830
scalar simple_scenario_network.node[0].content_store 	p_hit[0] 	0.010036005348098
scalar simple_scenario_network.node[0].content_store 	hits[0] 	1809
scalar simple_scenario_network.node[0].content_store 	misses[0] 	178442
scalar simple_scenario_network.node[1].core_layer 	interests[1] 	89908
scalar simple_scenario_network.node[1].core_layer 	data[1] 	88027
scalar simple_scenario_network.node[1].content_store 	p_hit[1] 	0.020921386306002
scalar simple_scenario_network.node[1].content_store 	hits[1] 	1881
scalar simple_scenario_network.node[1].content_store 	misses[1] 	88027
scalar simple_scenario_network.node[2].core_layer 	interests[2] 	88534
scalar simple_scenario_network.node[2].core_layer 	data[2] 	86803
scalar simple_scenario_network.node[2].content_store 	p_hit[2] 	0.019551810603836
scalar simple_scenario_network.node[2].content_store 	hits[2] 	1731
scalar simple_scenario_network.node[2].content_store 	misses[2] 	86803
scalar simple_scenario_network.node[3].core_layer 	interests[3] 	88027
scalar simple_scenario_network.node[3].core_layer 	repo_load[3] 	88027
scalar simple_scenario_network.node[3].core_layer 	data[3] 	0
scalar simple_scenario_network.node[3].content_store 	p_hit[3] 	0
scalar simple_scenario_network.node[3].content_store 	hits[3] 	0
scalar simple_scenario_network.node[3].content_store 	misses[3] 	88027
scalar simple_scenario_network.node[4].core_layer 	interests[4] 	86803
scalar simple_scenario_network.node[4].core_layer 	repo_load[4] 	86803
scalar simple_scenario_network.node[4].core_layer 	data[4] 	0
scalar simple_scenario_network.node[4].content_store 	p_hit[4] 	0
scalar simple_scenario_network.node[4].content_store 	hits[4] 	0
scalar simple_scenario_network.node[4].content_store 	misses[4] 	86803
scalar simple_scenario_network.client[0] 	hdistance[0] 	2.9298145363965
scalar simple_scenario_network.client[0] 	downloads[0] 	180251
scalar simple_scenario_network.client[0] 	avg_time[0] 	0.001999749459
