version 2
run General-261-20140424-12:28:51-12863
attr D prob_cache
attr F nrr
attr R lru
attr a 0.8
attr configname General
attr csize 10
attr ctlg 10^3
attr datetime 20140424-12:28:51
attr experiment General
attr inifile omnetpp.ini
attr iterationvars "$net=simple_scenario, $rep=2, $priceratiovalue=3, $a=0.8, $ctlg=10^3, $F=nrr, $ttl=1000, $D=prob_cache, $R=lru, $csize=10"
attr iterationvars2 "$net=simple_scenario, $rep=2, $priceratiovalue=3, $a=0.8, $ctlg=10^3, $F=nrr, $ttl=1000, $D=prob_cache, $R=lru, $csize=10, $repetition=0"
attr measurement "$net=simple_scenario, $rep=2, $priceratiovalue=3, $a=0.8, $ctlg=10^3, $F=nrr, $ttl=1000, $D=prob_cache, $R=lru, $csize=10"
attr net simple_scenario
attr network networks.${net=simple_scenario}_network
attr priceratiovalue 3
attr processid 12863
attr rep 2
attr repetition 0
attr replication #0
attr resultdir results
attr runnumber 261
attr seedset 2
attr ttl 1000

scalar . 	a 	0.8
scalar . 	csize 	10
scalar . 	priceratiovalue 	3
scalar . 	rep 	2
scalar . 	ttl 	1000
scalar simple_scenario_network.content_distribution 	repo-0 	3
scalar simple_scenario_network.content_distribution 	repo-1 	4
scalar simple_scenario_network.content_distribution 	client-0 	0
scalar simple_scenario_network.content_distribution 	repo-0_card 	504
scalar simple_scenario_network.content_distribution 	repo-1_card 	496
scalar simple_scenario_network.statistics 	p_hit 	0.07975600393515
scalar simple_scenario_network.statistics 	interests 	95345.8
scalar simple_scenario_network.statistics 	data 	59418.8
scalar simple_scenario_network.statistics 	hdistance 	2.4422133771258
scalar simple_scenario_network.statistics 	avg_time 	0.001997794853
scalar simple_scenario_network.statistics 	downloads 	179635
scalar simple_scenario_network.statistics 	total_cost 	71403
scalar simple_scenario_network.node[0].core_layer 	interests[0] 	179635
scalar simple_scenario_network.node[0].core_layer 	data[0] 	155481
scalar simple_scenario_network.node[0].core_layer 	repo_int[0] 	141613
scalar simple_scenario_network.node[0].content_store 	p_hit[0] 	0.13446154702591
scalar simple_scenario_network.node[0].content_store 	hits[0] 	24154
scalar simple_scenario_network.node[0].content_store 	misses[0] 	155481
scalar simple_scenario_network.node[1].core_layer 	interests[1] 	75962
scalar simple_scenario_network.node[1].core_layer 	data[1] 	69612
scalar simple_scenario_network.node[1].content_store 	p_hit[1] 	0.083594428793344
scalar simple_scenario_network.node[1].content_store 	hits[1] 	6350
scalar simple_scenario_network.node[1].content_store 	misses[1] 	69612
scalar simple_scenario_network.node[2].core_layer 	interests[2] 	79519
scalar simple_scenario_network.node[2].core_layer 	data[2] 	72001
scalar simple_scenario_network.node[2].content_store 	p_hit[2] 	0.094543442447717
scalar simple_scenario_network.node[2].content_store 	hits[2] 	7518
scalar simple_scenario_network.node[2].content_store 	misses[2] 	72001
scalar simple_scenario_network.node[3].core_layer 	interests[3] 	69612
scalar simple_scenario_network.node[3].core_layer 	repo_load[3] 	69612
scalar simple_scenario_network.node[3].core_layer 	data[3] 	0
scalar simple_scenario_network.node[3].content_store 	p_hit[3] 	0
scalar simple_scenario_network.node[3].content_store 	hits[3] 	0
scalar simple_scenario_network.node[3].content_store 	misses[3] 	69612
scalar simple_scenario_network.node[4].core_layer 	interests[4] 	72001
scalar simple_scenario_network.node[4].core_layer 	repo_load[4] 	72001
scalar simple_scenario_network.node[4].core_layer 	data[4] 	0
scalar simple_scenario_network.node[4].content_store 	p_hit[4] 	0
scalar simple_scenario_network.node[4].content_store 	hits[4] 	0
scalar simple_scenario_network.node[4].content_store 	misses[4] 	72001
scalar simple_scenario_network.client[0] 	hdistance[0] 	2.4422133771258
scalar simple_scenario_network.client[0] 	downloads[0] 	179635
scalar simple_scenario_network.client[0] 	avg_time[0] 	0.001997794853
