version 2
run General-56-20140426-05:04:48-21863
attr D costprob0.02
attr F nrr
attr R lru
attr a 1
attr configname General
attr csize 1000
attr ctlg 10^5
attr datetime 20140426-05:04:48
attr experiment General
attr inifile omnetpp.ini
attr iterationvars "$net=one_cache_scenario, $rep=2, $priceratiovalue=9, $a=1, $ctlg=10^5, $F=nrr, $ttl=1000, $D=costprob0.02, $R=lru, $csize=1000"
attr iterationvars2 "$net=one_cache_scenario, $rep=2, $priceratiovalue=9, $a=1, $ctlg=10^5, $F=nrr, $ttl=1000, $D=costprob0.02, $R=lru, $csize=1000, $repetition=0"
attr measurement "$net=one_cache_scenario, $rep=2, $priceratiovalue=9, $a=1, $ctlg=10^5, $F=nrr, $ttl=1000, $D=costprob0.02, $R=lru, $csize=1000"
attr net one_cache_scenario
attr network networks.${net=one_cache_scenario}_network
attr priceratiovalue 9
attr processid 21863
attr rep 2
attr repetition 0
attr replication #0
attr resultdir results
attr runnumber 56
attr seedset 2
attr ttl 1000

scalar . 	a 	1
scalar . 	csize 	1000
scalar . 	priceratiovalue 	9
scalar . 	rep 	2
scalar . 	ttl 	1000
scalar one_cache_scenario_network.content_distribution 	repo-0 	3
scalar one_cache_scenario_network.content_distribution 	repo-1 	4
scalar one_cache_scenario_network.content_distribution 	client-0 	0
scalar one_cache_scenario_network.content_distribution 	repo-0_card 	49990
scalar one_cache_scenario_network.content_distribution 	repo-1_card 	50010
scalar one_cache_scenario_network.statistics 	p_hit 	0.25339142406232
scalar one_cache_scenario_network.statistics 	interests 	71474.4
scalar one_cache_scenario_network.statistics 	data 	35575.6
scalar one_cache_scenario_network.statistics 	hdistance 	0.99099691354586
scalar one_cache_scenario_network.statistics 	avg_time 	0
scalar one_cache_scenario_network.statistics 	downloads 	179494
scalar one_cache_scenario_network.statistics 	total_cost 	38335
scalar one_cache_scenario_network.statistics 	interests_sent 	179494
scalar one_cache_scenario_network.node[0].core_layer 	interests[0] 	179494
scalar one_cache_scenario_network.node[0].core_layer 	data[0] 	88939
scalar one_cache_scenario_network.node[0].core_layer 	repo_int[0] 	88939
scalar one_cache_scenario_network.node[0].content_store 	p_hit[0] 	0.50450154322707
scalar one_cache_scenario_network.node[0].content_store 	hits[0] 	90555
scalar one_cache_scenario_network.node[0].content_store 	misses[0] 	88939
scalar one_cache_scenario_network.node[0].content_store 	decision_yes[0] 	766
scalar one_cache_scenario_network.node[0].content_store 	decision_no[0] 	88173
scalar one_cache_scenario_network.node[1].core_layer 	interests[1] 	52136
scalar one_cache_scenario_network.node[1].core_layer 	data[1] 	52136
scalar one_cache_scenario_network.node[1].content_store 	p_hit[1] 	0
scalar one_cache_scenario_network.node[1].content_store 	hits[1] 	0
scalar one_cache_scenario_network.node[1].content_store 	misses[1] 	52136
scalar one_cache_scenario_network.node[1].content_store 	decision_yes[1] 	0
scalar one_cache_scenario_network.node[1].content_store 	decision_no[1] 	52136
scalar one_cache_scenario_network.node[2].core_layer 	interests[2] 	36803
scalar one_cache_scenario_network.node[2].core_layer 	data[2] 	36803
scalar one_cache_scenario_network.node[2].content_store 	p_hit[2] 	0
scalar one_cache_scenario_network.node[2].content_store 	hits[2] 	0
scalar one_cache_scenario_network.node[2].content_store 	misses[2] 	36803
scalar one_cache_scenario_network.node[2].content_store 	decision_yes[2] 	0
scalar one_cache_scenario_network.node[2].content_store 	decision_no[2] 	36803
scalar one_cache_scenario_network.node[3].core_layer 	interests[3] 	52136
scalar one_cache_scenario_network.node[3].core_layer 	repo_load[3] 	52136
scalar one_cache_scenario_network.node[3].core_layer 	data[3] 	0
scalar one_cache_scenario_network.node[3].content_store 	p_hit[3] 	0
scalar one_cache_scenario_network.node[3].content_store 	hits[3] 	0
scalar one_cache_scenario_network.node[3].content_store 	misses[3] 	52136
scalar one_cache_scenario_network.node[3].content_store 	decision_yes[3] 	0
scalar one_cache_scenario_network.node[3].content_store 	decision_no[3] 	52136
scalar one_cache_scenario_network.node[4].core_layer 	interests[4] 	36803
scalar one_cache_scenario_network.node[4].core_layer 	repo_load[4] 	36803
scalar one_cache_scenario_network.node[4].core_layer 	data[4] 	0
scalar one_cache_scenario_network.node[4].content_store 	p_hit[4] 	0
scalar one_cache_scenario_network.node[4].content_store 	hits[4] 	0
scalar one_cache_scenario_network.node[4].content_store 	misses[4] 	36803
scalar one_cache_scenario_network.node[4].content_store 	decision_yes[4] 	0
scalar one_cache_scenario_network.node[4].content_store 	decision_no[4] 	36803
scalar one_cache_scenario_network.client[0] 	hdistance[0] 	0.99099691354586
scalar one_cache_scenario_network.client[0] 	downloads[0] 	179494
scalar one_cache_scenario_network.client[0] 	avg_time[0] 	0
scalar one_cache_scenario_network.client[0] 	interests_sent[0] 	179494
