version 2
run General-4-20140426-04:26:37-18429
attr D fix0.01
attr F nrr
attr R lru
attr a 1
attr configname General
attr csize 100
attr ctlg 10^4
attr datetime 20140426-04:26:37
attr experiment General
attr inifile omnetpp.ini
attr iterationvars "$net=one_cache_scenario, $rep=1, $priceratiovalue=10, $a=1, $ctlg=10^4, $F=nrr, $ttl=1000, $D=fix0.01, $R=lru, $csize=100"
attr iterationvars2 "$net=one_cache_scenario, $rep=1, $priceratiovalue=10, $a=1, $ctlg=10^4, $F=nrr, $ttl=1000, $D=fix0.01, $R=lru, $csize=100, $repetition=0"
attr measurement "$net=one_cache_scenario, $rep=1, $priceratiovalue=10, $a=1, $ctlg=10^4, $F=nrr, $ttl=1000, $D=fix0.01, $R=lru, $csize=100"
attr net one_cache_scenario
attr network networks.${net=one_cache_scenario}_network
attr priceratiovalue 10
attr processid 18429
attr rep 1
attr repetition 0
attr replication #0
attr resultdir results
attr runnumber 4
attr seedset 1
attr ttl 1000

scalar . 	a 	1
scalar . 	csize 	100
scalar . 	priceratiovalue 	10
scalar . 	rep 	1
scalar . 	ttl 	1000
scalar one_cache_scenario_network.content_distribution 	repo-0 	3
scalar one_cache_scenario_network.content_distribution 	repo-1 	4
scalar one_cache_scenario_network.content_distribution 	client-0 	0
scalar one_cache_scenario_network.content_distribution 	repo-0_card 	4948
scalar one_cache_scenario_network.content_distribution 	repo-1_card 	5052
scalar one_cache_scenario_network.statistics 	p_hit 	0.24273267851523
scalar one_cache_scenario_network.statistics 	interests 	72447.6
scalar one_cache_scenario_network.statistics 	data 	36574.8
scalar one_cache_scenario_network.statistics 	hdistance 	1.0195691443099
scalar one_cache_scenario_network.statistics 	avg_time 	0
scalar one_cache_scenario_network.statistics 	downloads 	179364
scalar one_cache_scenario_network.statistics 	total_cost 	46554
scalar one_cache_scenario_network.statistics 	interests_sent 	179364
scalar one_cache_scenario_network.node[0].core_layer 	interests[0] 	179364
scalar one_cache_scenario_network.node[0].core_layer 	data[0] 	91437
scalar one_cache_scenario_network.node[0].core_layer 	repo_int[0] 	91437
scalar one_cache_scenario_network.node[0].content_store 	p_hit[0] 	0.49021542784505
scalar one_cache_scenario_network.node[0].content_store 	hits[0] 	87927
scalar one_cache_scenario_network.node[0].content_store 	misses[0] 	91437
scalar one_cache_scenario_network.node[0].content_store 	decision_yes[0] 	953
scalar one_cache_scenario_network.node[0].content_store 	decision_no[0] 	90484
scalar one_cache_scenario_network.node[1].core_layer 	interests[1] 	44696
scalar one_cache_scenario_network.node[1].core_layer 	data[1] 	44696
scalar one_cache_scenario_network.node[1].content_store 	p_hit[1] 	0
scalar one_cache_scenario_network.node[1].content_store 	hits[1] 	0
scalar one_cache_scenario_network.node[1].content_store 	misses[1] 	44696
scalar one_cache_scenario_network.node[1].content_store 	decision_yes[1] 	0
scalar one_cache_scenario_network.node[1].content_store 	decision_no[1] 	44696
scalar one_cache_scenario_network.node[2].core_layer 	interests[2] 	46741
scalar one_cache_scenario_network.node[2].core_layer 	data[2] 	46741
scalar one_cache_scenario_network.node[2].content_store 	p_hit[2] 	0
scalar one_cache_scenario_network.node[2].content_store 	hits[2] 	0
scalar one_cache_scenario_network.node[2].content_store 	misses[2] 	46741
scalar one_cache_scenario_network.node[2].content_store 	decision_yes[2] 	0
scalar one_cache_scenario_network.node[2].content_store 	decision_no[2] 	46741
scalar one_cache_scenario_network.node[3].core_layer 	interests[3] 	44696
scalar one_cache_scenario_network.node[3].core_layer 	repo_load[3] 	44696
scalar one_cache_scenario_network.node[3].core_layer 	data[3] 	0
scalar one_cache_scenario_network.node[3].content_store 	p_hit[3] 	0
scalar one_cache_scenario_network.node[3].content_store 	hits[3] 	0
scalar one_cache_scenario_network.node[3].content_store 	misses[3] 	44696
scalar one_cache_scenario_network.node[3].content_store 	decision_yes[3] 	0
scalar one_cache_scenario_network.node[3].content_store 	decision_no[3] 	44696
scalar one_cache_scenario_network.node[4].core_layer 	interests[4] 	46741
scalar one_cache_scenario_network.node[4].core_layer 	repo_load[4] 	46741
scalar one_cache_scenario_network.node[4].core_layer 	data[4] 	0
scalar one_cache_scenario_network.node[4].content_store 	p_hit[4] 	0
scalar one_cache_scenario_network.node[4].content_store 	hits[4] 	0
scalar one_cache_scenario_network.node[4].content_store 	misses[4] 	46741
scalar one_cache_scenario_network.node[4].content_store 	decision_yes[4] 	0
scalar one_cache_scenario_network.node[4].content_store 	decision_no[4] 	46741
scalar one_cache_scenario_network.client[0] 	hdistance[0] 	1.0195691443099
scalar one_cache_scenario_network.client[0] 	downloads[0] 	179364
scalar one_cache_scenario_network.client[0] 	avg_time[0] 	0
scalar one_cache_scenario_network.client[0] 	interests_sent[0] 	179364
