version 2
run General-21-20140625-18:26:57-12219
attr D costprobprodcorr0.01
attr F nrr
attr R lru
attr a 1
attr configname General
attr csize 1e3
attr ctlg 1e5
attr datetime 20140625-18:26:57
attr experiment General
attr inifile omnetpp.ini
attr iterationvars "$net=abilene_cost, $rep=1, $priceratiovalue=10, $weights=0.333_0.333_0.334, $lambda=100, $a=1, $ctlg=1e5, $F=nrr, $ttl=1000, $D=costprobprodcorr0.01, $xi=3, $R=lru, $csize=1e3, $pricebits=0, $mytime=1800"
attr iterationvars2 "$net=abilene_cost, $rep=1, $priceratiovalue=10, $weights=0.333_0.333_0.334, $lambda=100, $a=1, $ctlg=1e5, $F=nrr, $ttl=1000, $D=costprobprodcorr0.01, $xi=3, $R=lru, $csize=1e3, $pricebits=0, $mytime=1800, $repetition=0"
attr lambda 100
attr measurement "$net=abilene_cost, $rep=1, $priceratiovalue=10, $weights=0.333_0.333_0.334, $lambda=100, $a=1, $ctlg=1e5, $F=nrr, $ttl=1000, $D=costprobprodcorr0.01, $xi=3, $R=lru, $csize=1e3, $pricebits=0, $mytime=1800"
attr mytime 1800
attr net abilene_cost
attr network "networks.${net=geant_cost, abilene_cost}_network"
attr pricebits 0
attr priceratiovalue 10
attr processid 12219
attr rep 1
attr repetition 0
attr replication #0
attr resultdir results
attr runnumber 21
attr seedset 1
attr ttl 1000
attr weights 0.333_0.333_0.334
attr xi 3

scalar . 	a 	1
scalar . 	csize 	1e3
scalar . 	ctlg 	1e5
scalar . 	lambda 	100
scalar . 	mytime 	1800
scalar . 	pricebits 	0
scalar . 	priceratiovalue 	10
scalar . 	rep 	1
scalar . 	ttl 	1000
scalar . 	xi 	3
scalar abilene_cost_network.content_distribution 	repo-0 	11
scalar abilene_cost_network.content_distribution 	repo-1 	12
scalar abilene_cost_network.content_distribution 	repo-2 	13
scalar abilene_cost_network.content_distribution 	client-0 	5
scalar abilene_cost_network.content_distribution 	client-1 	0
scalar abilene_cost_network.content_distribution 	client-2 	9
scalar abilene_cost_network.content_distribution 	repo-0_card 	33396
scalar abilene_cost_network.content_distribution 	repo-1_card 	33039
scalar abilene_cost_network.content_distribution 	repo-2_card 	33565
scalar abilene_cost_network.statistics 	repo_popularity[0] 	0.28686251265602
scalar abilene_cost_network.statistics 	repo_popularity[1] 	0.2886063426465
scalar abilene_cost_network.statistics 	repo_popularity[2] 	0.42453114469748
scalar abilene_cost_network.statistics 	stabilization_time 	36060
scalar abilene_cost_network.node[1].face$o[4].channel 	price[1] 	0
scalar abilene_cost_network.node[1].face$o[4].channel 	represented_price[1] 	0
scalar abilene_cost_network.node[7].face$o[4].channel 	price[7] 	0
scalar abilene_cost_network.node[7].face$o[4].channel 	represented_price[7] 	0
scalar abilene_cost_network.node[10].face$o[4].channel 	price[10] 	0
scalar abilene_cost_network.node[10].face$o[4].channel 	represented_price[10] 	0
scalar abilene_cost_network.node[11].face$o[1].channel 	price[11] 	0
scalar abilene_cost_network.node[11].face$o[1].channel 	represented_price[11] 	0
scalar abilene_cost_network.node[12].face$o[1].channel 	price[12] 	1
scalar abilene_cost_network.node[12].face$o[1].channel 	represented_price[12] 	1
scalar abilene_cost_network.node[13].face$o[1].channel 	price[13] 	10
scalar abilene_cost_network.node[13].face$o[1].channel 	represented_price[13] 	10
scalar abilene_cost_network.statistics 	p_hit 	0.10224825012383
scalar abilene_cost_network.statistics 	interests 	148826.85714286
scalar abilene_cost_network.statistics 	data 	110323.28571429
scalar abilene_cost_network.statistics 	hdistance 	3.5103735279477
scalar abilene_cost_network.statistics 	avg_time 	0.015073169388
scalar abilene_cost_network.statistics 	downloads 	530799
scalar abilene_cost_network.statistics 	total_cost 	796090
scalar abilene_cost_network.statistics 	total_replicas 	100000
scalar abilene_cost_network.statistics 	inner_hit 	0.40184702684067
scalar abilene_cost_network.statistics 	interests_sent 	539051
scalar abilene_cost_network.node[0].core_layer 	interests[0] 	195773
scalar abilene_cost_network.node[0].core_layer 	data[0] 	165967
scalar abilene_cost_network.node[0].core_layer 	repo_int[0] 	317499
scalar abilene_cost_network.node[0].content_store 	p_hit[0] 	0.14042283665265
scalar abilene_cost_network.node[0].content_store 	hits[0] 	27491
scalar abilene_cost_network.node[0].content_store 	misses[0] 	168282
scalar abilene_cost_network.node[0].content_store 	decision_yes[0] 	763
scalar abilene_cost_network.node[0].content_store 	decision_no[0] 	165204
scalar abilene_cost_network.node[0].content_store 	decision_ratio[0] 	0.0045972994631463
scalar abilene_cost_network.node[0].content_store 	correction_factor[0] 	2.9910299013259e-05
scalar abilene_cost_network.node[0].content_store 	xi[0] 	3
scalar abilene_cost_network.node[1].core_layer 	interests[1] 	251122
scalar abilene_cost_network.node[1].core_layer 	data[1] 	186435
scalar abilene_cost_network.node[1].content_store 	p_hit[1] 	0.2575919274297
scalar abilene_cost_network.node[1].content_store 	hits[1] 	64687
scalar abilene_cost_network.node[1].content_store 	misses[1] 	186435
scalar abilene_cost_network.node[1].content_store 	decision_yes[1] 	2080
scalar abilene_cost_network.node[1].content_store 	decision_no[1] 	184355
scalar abilene_cost_network.node[1].content_store 	decision_ratio[1] 	0.011156703408695
scalar abilene_cost_network.node[1].content_store 	correction_factor[1] 	2.9910299013259e-05
scalar abilene_cost_network.node[1].content_store 	xi[1] 	3
scalar abilene_cost_network.node[2].core_layer 	interests[2] 	184506
scalar abilene_cost_network.node[2].core_layer 	data[2] 	159121
scalar abilene_cost_network.node[2].content_store 	p_hit[2] 	0.13619069298559
scalar abilene_cost_network.node[2].content_store 	hits[2] 	25128
scalar abilene_cost_network.node[2].content_store 	misses[2] 	159378
scalar abilene_cost_network.node[2].content_store 	decision_yes[2] 	647
scalar abilene_cost_network.node[2].content_store 	decision_no[2] 	158474
scalar abilene_cost_network.node[2].content_store 	decision_ratio[2] 	0.0040660880713419
scalar abilene_cost_network.node[2].content_store 	correction_factor[2] 	2.9910299013259e-05
scalar abilene_cost_network.node[2].content_store 	xi[2] 	3
scalar abilene_cost_network.node[3].core_layer 	interests[3] 	178650
scalar abilene_cost_network.node[3].core_layer 	data[3] 	144832
scalar abilene_cost_network.node[3].content_store 	p_hit[3] 	0.18930310663308
scalar abilene_cost_network.node[3].content_store 	hits[3] 	33819
scalar abilene_cost_network.node[3].content_store 	misses[3] 	144831
scalar abilene_cost_network.node[3].content_store 	decision_yes[3] 	678
scalar abilene_cost_network.node[3].content_store 	decision_no[3] 	144154
scalar abilene_cost_network.node[3].content_store 	decision_ratio[3] 	0.0046812859036677
scalar abilene_cost_network.node[3].content_store 	correction_factor[3] 	2.9910299013259e-05
scalar abilene_cost_network.node[3].content_store 	xi[3] 	3
scalar abilene_cost_network.node[4].core_layer 	interests[4] 	124373
scalar abilene_cost_network.node[4].core_layer 	data[4] 	117675
scalar abilene_cost_network.node[4].content_store 	p_hit[4] 	0.053862172658053
scalar abilene_cost_network.node[4].content_store 	hits[4] 	6699
scalar abilene_cost_network.node[4].content_store 	misses[4] 	117674
scalar abilene_cost_network.node[4].content_store 	decision_yes[4] 	705
scalar abilene_cost_network.node[4].content_store 	decision_no[4] 	116970
scalar abilene_cost_network.node[4].content_store 	decision_ratio[4] 	0.0059910771191842
scalar abilene_cost_network.node[4].content_store 	correction_factor[4] 	2.9910299013259e-05
scalar abilene_cost_network.node[4].content_store 	xi[4] 	3
scalar abilene_cost_network.node[5].core_layer 	interests[5] 	181490
scalar abilene_cost_network.node[5].core_layer 	data[5] 	169253
scalar abilene_cost_network.node[5].content_store 	p_hit[5] 	0.050024794754532
scalar abilene_cost_network.node[5].content_store 	hits[5] 	9079
scalar abilene_cost_network.node[5].content_store 	misses[5] 	172411
scalar abilene_cost_network.node[5].content_store 	decision_yes[5] 	669
scalar abilene_cost_network.node[5].content_store 	decision_no[5] 	168584
scalar abilene_cost_network.node[5].content_store 	decision_ratio[5] 	0.0039526625820517
scalar abilene_cost_network.node[5].content_store 	correction_factor[5] 	2.9910299013259e-05
scalar abilene_cost_network.node[5].content_store 	xi[5] 	3
scalar abilene_cost_network.node[6].core_layer 	interests[6] 	49710
scalar abilene_cost_network.node[6].core_layer 	data[6] 	44774
scalar abilene_cost_network.node[6].content_store 	p_hit[6] 	0.0992757996379
scalar abilene_cost_network.node[6].content_store 	hits[6] 	4935
scalar abilene_cost_network.node[6].content_store 	misses[6] 	44775
scalar abilene_cost_network.node[6].content_store 	decision_yes[6] 	0
scalar abilene_cost_network.node[6].content_store 	decision_no[6] 	44774
scalar abilene_cost_network.node[6].content_store 	decision_ratio[6] 	0
scalar abilene_cost_network.node[6].content_store 	correction_factor[6] 	2.9910299013259e-05
scalar abilene_cost_network.node[6].content_store 	xi[6] 	3
scalar abilene_cost_network.node[7].core_layer 	interests[7] 	121383
scalar abilene_cost_network.node[7].core_layer 	data[7] 	103059
scalar abilene_cost_network.node[7].content_store 	p_hit[7] 	0.15095194549484
scalar abilene_cost_network.node[7].content_store 	hits[7] 	18323
scalar abilene_cost_network.node[7].content_store 	misses[7] 	103060
scalar abilene_cost_network.node[7].content_store 	decision_yes[7] 	3
scalar abilene_cost_network.node[7].content_store 	decision_no[7] 	103056
scalar abilene_cost_network.node[7].content_store 	decision_ratio[7] 	2.9109539195995e-05
scalar abilene_cost_network.node[7].content_store 	correction_factor[7] 	2.9910299013259e-05
scalar abilene_cost_network.node[7].content_store 	xi[7] 	3
scalar abilene_cost_network.node[8].core_layer 	interests[8] 	66656
scalar abilene_cost_network.node[8].core_layer 	data[8] 	65131
scalar abilene_cost_network.node[8].content_store 	p_hit[8] 	0.022878660585694
scalar abilene_cost_network.node[8].content_store 	hits[8] 	1525
scalar abilene_cost_network.node[8].content_store 	misses[8] 	65131
scalar abilene_cost_network.node[8].content_store 	decision_yes[8] 	1
scalar abilene_cost_network.node[8].content_store 	decision_no[8] 	65130
scalar abilene_cost_network.node[8].content_store 	decision_ratio[8] 	1.5353671830618e-05
scalar abilene_cost_network.node[8].content_store 	correction_factor[8] 	2.9910299013259e-05
scalar abilene_cost_network.node[8].content_store 	xi[8] 	3
scalar abilene_cost_network.node[9].core_layer 	interests[9] 	190142
scalar abilene_cost_network.node[9].core_layer 	data[9] 	171920
scalar abilene_cost_network.node[9].content_store 	p_hit[9] 	0.08121824741509
scalar abilene_cost_network.node[9].content_store 	hits[9] 	15443
scalar abilene_cost_network.node[9].content_store 	misses[9] 	174699
scalar abilene_cost_network.node[9].content_store 	decision_yes[9] 	650
scalar abilene_cost_network.node[9].content_store 	decision_no[9] 	171270
scalar abilene_cost_network.node[9].content_store 	decision_ratio[9] 	0.0037808282922289
scalar abilene_cost_network.node[9].content_store 	correction_factor[9] 	2.9910299013259e-05
scalar abilene_cost_network.node[9].content_store 	xi[9] 	3
scalar abilene_cost_network.node[10].core_layer 	interests[10] 	222272
scalar abilene_cost_network.node[10].core_layer 	data[10] 	216359
scalar abilene_cost_network.node[10].content_store 	p_hit[10] 	0.026602541030809
scalar abilene_cost_network.node[10].content_store 	hits[10] 	5913
scalar abilene_cost_network.node[10].content_store 	misses[10] 	216359
scalar abilene_cost_network.node[10].content_store 	decision_yes[10] 	708
scalar abilene_cost_network.node[10].content_store 	decision_no[10] 	215651
scalar abilene_cost_network.node[10].content_store 	decision_ratio[10] 	0.0032723390291136
scalar abilene_cost_network.node[10].content_store 	correction_factor[10] 	2.9910299013259e-05
scalar abilene_cost_network.node[10].content_store 	xi[10] 	3
scalar abilene_cost_network.node[11].core_layer 	interests[11] 	153272
scalar abilene_cost_network.node[11].core_layer 	repo_load[11] 	153272
scalar abilene_cost_network.node[11].core_layer 	data[11] 	0
scalar abilene_cost_network.node[11].content_store 	p_hit[11] 	0
scalar abilene_cost_network.node[11].content_store 	hits[11] 	0
scalar abilene_cost_network.node[11].content_store 	misses[11] 	153272
scalar abilene_cost_network.node[11].content_store 	decision_yes[11] 	0
scalar abilene_cost_network.node[11].content_store 	decision_no[11] 	153272
scalar abilene_cost_network.node[11].content_store 	decision_ratio[11] 	0
scalar abilene_cost_network.node[12].core_layer 	interests[12] 	94020
scalar abilene_cost_network.node[12].core_layer 	repo_load[12] 	94020
scalar abilene_cost_network.node[12].core_layer 	data[12] 	0
scalar abilene_cost_network.node[12].content_store 	p_hit[12] 	0
scalar abilene_cost_network.node[12].content_store 	hits[12] 	0
scalar abilene_cost_network.node[12].content_store 	misses[12] 	94020
scalar abilene_cost_network.node[12].content_store 	decision_yes[12] 	0
scalar abilene_cost_network.node[12].content_store 	decision_no[12] 	94020
scalar abilene_cost_network.node[12].content_store 	decision_ratio[12] 	0
scalar abilene_cost_network.node[13].core_layer 	interests[13] 	70207
scalar abilene_cost_network.node[13].core_layer 	repo_load[13] 	70207
scalar abilene_cost_network.node[13].core_layer 	data[13] 	0
scalar abilene_cost_network.node[13].content_store 	p_hit[13] 	0
scalar abilene_cost_network.node[13].content_store 	hits[13] 	0
scalar abilene_cost_network.node[13].content_store 	misses[13] 	70207
scalar abilene_cost_network.node[13].content_store 	decision_yes[13] 	0
scalar abilene_cost_network.node[13].content_store 	decision_no[13] 	70207
scalar abilene_cost_network.node[13].content_store 	decision_ratio[13] 	0
scalar abilene_cost_network.client[0] 	hdistance[0] 	3.016802934597
scalar abilene_cost_network.client[0] 	downloads[0] 	177469
scalar abilene_cost_network.client[0] 	avg_time[0] 	0.01360314286
scalar abilene_cost_network.client[0] 	interests_sent[0] 	179784
scalar abilene_cost_network.client[5] 	hdistance[5] 	4.592182288476
scalar abilene_cost_network.client[5] 	downloads[5] 	176292
scalar abilene_cost_network.client[5] 	avg_time[5] 	0.018496334614
scalar abilene_cost_network.client[5] 	interests_sent[5] 	179450
scalar abilene_cost_network.client[9] 	hdistance[9] 	2.92213536077
scalar abilene_cost_network.client[9] 	downloads[9] 	177038
scalar abilene_cost_network.client[9] 	avg_time[9] 	0.013120030691
scalar abilene_cost_network.client[9] 	interests_sent[9] 	179817
