version 2
run General-17-20140630-12:36:41-25775
attr D lce
attr F nrr
attr R lru
attr a 1
attr configname General
attr csize 1e3
attr ctlg 1e5
attr datetime 20140630-12:36:41
attr experiment General
attr inifile omnetpp.ini
attr iterationvars "$net=geant_cost, $rep=13, $priceratiovalue=10, $weights=0.333_0.333_0.334, $lambda=100, $a=1, $ctlg=1e5, $F=nrr, $ttl=1000, $D=lce, $xi=1, $R=lru, $csize=1e3, $pricebits=0, $window=60, $variance=0.05, $mytime=1800"
attr iterationvars2 "$net=geant_cost, $rep=13, $priceratiovalue=10, $weights=0.333_0.333_0.334, $lambda=100, $a=1, $ctlg=1e5, $F=nrr, $ttl=1000, $D=lce, $xi=1, $R=lru, $csize=1e3, $pricebits=0, $window=60, $variance=0.05, $mytime=1800, $repetition=0"
attr lambda 100
attr measurement "$net=geant_cost, $rep=13, $priceratiovalue=10, $weights=0.333_0.333_0.334, $lambda=100, $a=1, $ctlg=1e5, $F=nrr, $ttl=1000, $D=lce, $xi=1, $R=lru, $csize=1e3, $pricebits=0, $window=60, $variance=0.05, $mytime=1800"
attr mytime 1800
attr net geant_cost
attr network "networks.${net=geant_cost, abilene_cost}_network"
attr pricebits 0
attr priceratiovalue 10
attr processid 25775
attr rep 13
attr repetition 0
attr replication #0
attr resultdir results
attr runnumber 17
attr seedset 13
attr ttl 1000
attr variance 0.05
attr weights 0.333_0.333_0.334
attr window 60
attr xi 1

scalar . 	a 	1
scalar . 	csize 	1e3
scalar . 	ctlg 	1e5
scalar . 	lambda 	100
scalar . 	mytime 	1800
scalar . 	pricebits 	0
scalar . 	priceratiovalue 	10
scalar . 	rep 	13
scalar . 	ttl 	1000
scalar . 	variance 	0.05
scalar . 	window 	60
scalar . 	xi 	1
scalar geant_cost_network.content_distribution 	repo-0 	22
scalar geant_cost_network.content_distribution 	repo-1 	23
scalar geant_cost_network.content_distribution 	repo-2 	24
scalar geant_cost_network.content_distribution 	client-0 	20
scalar geant_cost_network.content_distribution 	client-1 	10
scalar geant_cost_network.content_distribution 	client-2 	12
scalar geant_cost_network.content_distribution 	client-3 	9
scalar geant_cost_network.content_distribution 	client-4 	5
scalar geant_cost_network.content_distribution 	repo-0_card 	33150
scalar geant_cost_network.content_distribution 	repo-1_card 	33483
scalar geant_cost_network.content_distribution 	repo-2_card 	33367
scalar geant_cost_network.statistics 	repo_popularity[0] 	0.32452364638376
scalar geant_cost_network.statistics 	repo_popularity[1] 	0.39627169592308
scalar geant_cost_network.statistics 	repo_popularity[2] 	0.27920465769315
scalar geant_cost_network.statistics 	stabilization_time 	36060
scalar geant_cost_network.node[7].face$o[4].channel 	price[7] 	0
scalar geant_cost_network.node[7].face$o[4].channel 	represented_price[7] 	0
scalar geant_cost_network.node[8].face$o[3].channel 	price[8] 	0
scalar geant_cost_network.node[8].face$o[3].channel 	represented_price[8] 	0
scalar geant_cost_network.node[21].face$o[5].channel 	price[21] 	0
scalar geant_cost_network.node[21].face$o[5].channel 	represented_price[21] 	0
scalar geant_cost_network.node[22].face$o[1].channel 	price[22] 	0
scalar geant_cost_network.node[22].face$o[1].channel 	represented_price[22] 	0
scalar geant_cost_network.node[23].face$o[1].channel 	price[23] 	1
scalar geant_cost_network.node[23].face$o[1].channel 	represented_price[23] 	1
scalar geant_cost_network.node[24].face$o[1].channel 	price[24] 	10
scalar geant_cost_network.node[24].face$o[1].channel 	represented_price[24] 	10
scalar geant_cost_network.statistics 	p_hit 	0.12508673529775
scalar geant_cost_network.statistics 	interests 	125381.48
scalar geant_cost_network.statistics 	data 	89389.04
scalar geant_cost_network.statistics 	hdistance 	3.0521866591503
scalar geant_cost_network.statistics 	avg_time 	0.007586830041
scalar geant_cost_network.statistics 	downloads 	898083
scalar geant_cost_network.statistics 	total_cost 	1782445
scalar geant_cost_network.statistics 	total_replicas 	100000
scalar geant_cost_network.statistics 	inner_hit 	0.43815994735453
scalar geant_cost_network.statistics 	interests_sent 	899817
scalar geant_cost_network.node[0].core_layer 	interests[0] 	0
scalar geant_cost_network.node[0].core_layer 	data[0] 	0
scalar geant_cost_network.node[0].core_layer 	repo_int[0] 	504579
scalar geant_cost_network.node[0].content_store 	p_hit[0] 	-nan
scalar geant_cost_network.node[0].content_store 	hits[0] 	0
scalar geant_cost_network.node[0].content_store 	misses[0] 	0
scalar geant_cost_network.node[0].content_store 	decision_yes[0] 	0
scalar geant_cost_network.node[0].content_store 	decision_no[0] 	0
scalar geant_cost_network.node[0].content_store 	decision_ratio[0] 	0
scalar geant_cost_network.node[1].core_layer 	interests[1] 	0
scalar geant_cost_network.node[1].core_layer 	data[1] 	0
scalar geant_cost_network.node[1].content_store 	p_hit[1] 	-nan
scalar geant_cost_network.node[1].content_store 	hits[1] 	0
scalar geant_cost_network.node[1].content_store 	misses[1] 	0
scalar geant_cost_network.node[1].content_store 	decision_yes[1] 	0
scalar geant_cost_network.node[1].content_store 	decision_no[1] 	0
scalar geant_cost_network.node[1].content_store 	decision_ratio[1] 	0
scalar geant_cost_network.node[2].core_layer 	interests[2] 	0
scalar geant_cost_network.node[2].core_layer 	data[2] 	0
scalar geant_cost_network.node[2].content_store 	p_hit[2] 	-nan
scalar geant_cost_network.node[2].content_store 	hits[2] 	0
scalar geant_cost_network.node[2].content_store 	misses[2] 	0
scalar geant_cost_network.node[2].content_store 	decision_yes[2] 	0
scalar geant_cost_network.node[2].content_store 	decision_no[2] 	0
scalar geant_cost_network.node[2].content_store 	decision_ratio[2] 	0
scalar geant_cost_network.node[3].core_layer 	interests[3] 	141814
scalar geant_cost_network.node[3].core_layer 	data[3] 	137993
scalar geant_cost_network.node[3].content_store 	p_hit[3] 	0.026943743212941
scalar geant_cost_network.node[3].content_store 	hits[3] 	3821
scalar geant_cost_network.node[3].content_store 	misses[3] 	137993
scalar geant_cost_network.node[3].content_store 	decision_yes[3] 	137971
scalar geant_cost_network.node[3].content_store 	decision_no[3] 	0
scalar geant_cost_network.node[3].content_store 	decision_ratio[3] 	1
scalar geant_cost_network.node[4].core_layer 	interests[4] 	215832
scalar geant_cost_network.node[4].core_layer 	data[4] 	214606
scalar geant_cost_network.node[4].content_store 	p_hit[4] 	0.0056803439712369
scalar geant_cost_network.node[4].content_store 	hits[4] 	1226
scalar geant_cost_network.node[4].content_store 	misses[4] 	214606
scalar geant_cost_network.node[4].content_store 	decision_yes[4] 	214586
scalar geant_cost_network.node[4].content_store 	decision_no[4] 	0
scalar geant_cost_network.node[4].content_store 	decision_ratio[4] 	1
scalar geant_cost_network.node[5].core_layer 	interests[5] 	183650
scalar geant_cost_network.node[5].core_layer 	data[5] 	142342
scalar geant_cost_network.node[5].content_store 	p_hit[5] 	0.22265178328342
scalar geant_cost_network.node[5].content_store 	hits[5] 	40890
scalar geant_cost_network.node[5].content_store 	misses[5] 	142760
scalar geant_cost_network.node[5].content_store 	decision_yes[5] 	142342
scalar geant_cost_network.node[5].content_store 	decision_no[5] 	0
scalar geant_cost_network.node[5].content_store 	decision_ratio[5] 	1
scalar geant_cost_network.node[6].core_layer 	interests[6] 	73168
scalar geant_cost_network.node[6].core_layer 	data[6] 	69787
scalar geant_cost_network.node[6].content_store 	p_hit[6] 	0.046208725125738
scalar geant_cost_network.node[6].content_store 	hits[6] 	3381
scalar geant_cost_network.node[6].content_store 	misses[6] 	69787
scalar geant_cost_network.node[6].content_store 	decision_yes[6] 	69787
scalar geant_cost_network.node[6].content_store 	decision_no[6] 	0
scalar geant_cost_network.node[6].content_store 	decision_ratio[6] 	1
scalar geant_cost_network.node[7].core_layer 	interests[7] 	243724
scalar geant_cost_network.node[7].core_layer 	data[7] 	241952
scalar geant_cost_network.node[7].content_store 	p_hit[7] 	0.00726231310827
scalar geant_cost_network.node[7].content_store 	hits[7] 	1770
scalar geant_cost_network.node[7].content_store 	misses[7] 	241954
scalar geant_cost_network.node[7].content_store 	decision_yes[7] 	241946
scalar geant_cost_network.node[7].content_store 	decision_no[7] 	0
scalar geant_cost_network.node[7].content_store 	decision_ratio[7] 	1
scalar geant_cost_network.node[8].core_layer 	interests[8] 	245474
scalar geant_cost_network.node[8].core_layer 	data[8] 	243539
scalar geant_cost_network.node[8].content_store 	p_hit[8] 	0.0078827085556923
scalar geant_cost_network.node[8].content_store 	hits[8] 	1935
scalar geant_cost_network.node[8].content_store 	misses[8] 	243539
scalar geant_cost_network.node[8].content_store 	decision_yes[8] 	243535
scalar geant_cost_network.node[8].content_store 	decision_no[8] 	0
scalar geant_cost_network.node[8].content_store 	decision_ratio[8] 	1
scalar geant_cost_network.node[9].core_layer 	interests[9] 	357481
scalar geant_cost_network.node[9].core_layer 	data[9] 	315520
scalar geant_cost_network.node[9].content_store 	p_hit[9] 	0.11532920630747
scalar geant_cost_network.node[9].content_store 	hits[9] 	41228
scalar geant_cost_network.node[9].content_store 	misses[9] 	316253
scalar geant_cost_network.node[9].content_store 	decision_yes[9] 	315473
scalar geant_cost_network.node[9].content_store 	decision_no[9] 	0
scalar geant_cost_network.node[9].content_store 	decision_ratio[9] 	1
scalar geant_cost_network.node[10].core_layer 	interests[10] 	190121
scalar geant_cost_network.node[10].core_layer 	data[10] 	138590
scalar geant_cost_network.node[10].content_store 	p_hit[10] 	0.26954939222916
scalar geant_cost_network.node[10].content_store 	hits[10] 	51247
scalar geant_cost_network.node[10].content_store 	misses[10] 	138874
scalar geant_cost_network.node[10].content_store 	decision_yes[10] 	138590
scalar geant_cost_network.node[10].content_store 	decision_no[10] 	0
scalar geant_cost_network.node[10].content_store 	decision_ratio[10] 	1
scalar geant_cost_network.node[11].core_layer 	interests[11] 	0
scalar geant_cost_network.node[11].core_layer 	data[11] 	0
scalar geant_cost_network.node[11].content_store 	p_hit[11] 	-nan
scalar geant_cost_network.node[11].content_store 	hits[11] 	0
scalar geant_cost_network.node[11].content_store 	misses[11] 	0
scalar geant_cost_network.node[11].content_store 	decision_yes[11] 	0
scalar geant_cost_network.node[11].content_store 	decision_no[11] 	0
scalar geant_cost_network.node[11].content_store 	decision_ratio[11] 	0
scalar geant_cost_network.node[12].core_layer 	interests[12] 	313025
scalar geant_cost_network.node[12].core_layer 	data[12] 	258576
scalar geant_cost_network.node[12].content_store 	p_hit[12] 	0.16982030189282
scalar geant_cost_network.node[12].content_store 	hits[12] 	53158
scalar geant_cost_network.node[12].content_store 	misses[12] 	259867
scalar geant_cost_network.node[12].content_store 	decision_yes[12] 	258576
scalar geant_cost_network.node[12].content_store 	decision_no[12] 	0
scalar geant_cost_network.node[12].content_store 	decision_ratio[12] 	1
scalar geant_cost_network.node[13].core_layer 	interests[13] 	50597
scalar geant_cost_network.node[13].core_layer 	data[13] 	980
scalar geant_cost_network.node[13].content_store 	p_hit[13] 	0.98063126272309
scalar geant_cost_network.node[13].content_store 	hits[13] 	49617
scalar geant_cost_network.node[13].content_store 	misses[13] 	980
scalar geant_cost_network.node[13].content_store 	decision_yes[13] 	980
scalar geant_cost_network.node[13].content_store 	decision_no[13] 	0
scalar geant_cost_network.node[13].content_store 	decision_ratio[13] 	1
scalar geant_cost_network.node[14].core_layer 	interests[14] 	87512
scalar geant_cost_network.node[14].core_layer 	data[14] 	65087
scalar geant_cost_network.node[14].content_store 	p_hit[14] 	0.25454794771003
scalar geant_cost_network.node[14].content_store 	hits[14] 	22276
scalar geant_cost_network.node[14].content_store 	misses[14] 	65236
scalar geant_cost_network.node[14].content_store 	decision_yes[14] 	65081
scalar geant_cost_network.node[14].content_store 	decision_no[14] 	0
scalar geant_cost_network.node[14].content_store 	decision_ratio[14] 	1
scalar geant_cost_network.node[15].core_layer 	interests[15] 	74508
scalar geant_cost_network.node[15].core_layer 	data[15] 	11
scalar geant_cost_network.node[15].content_store 	p_hit[15] 	0.99985236484673
scalar geant_cost_network.node[15].content_store 	hits[15] 	74497
scalar geant_cost_network.node[15].content_store 	misses[15] 	11
scalar geant_cost_network.node[15].content_store 	decision_yes[15] 	11
scalar geant_cost_network.node[15].content_store 	decision_no[15] 	0
scalar geant_cost_network.node[15].content_store 	decision_ratio[15] 	1
scalar geant_cost_network.node[16].core_layer 	interests[16] 	0
scalar geant_cost_network.node[16].core_layer 	data[16] 	0
scalar geant_cost_network.node[16].content_store 	p_hit[16] 	-nan
scalar geant_cost_network.node[16].content_store 	hits[16] 	0
scalar geant_cost_network.node[16].content_store 	misses[16] 	0
scalar geant_cost_network.node[16].content_store 	decision_yes[16] 	0
scalar geant_cost_network.node[16].content_store 	decision_no[16] 	0
scalar geant_cost_network.node[16].content_store 	decision_ratio[16] 	0
scalar geant_cost_network.node[17].core_layer 	interests[17] 	0
scalar geant_cost_network.node[17].core_layer 	data[17] 	0
scalar geant_cost_network.node[17].content_store 	p_hit[17] 	-nan
scalar geant_cost_network.node[17].content_store 	hits[17] 	0
scalar geant_cost_network.node[17].content_store 	misses[17] 	0
scalar geant_cost_network.node[17].content_store 	decision_yes[17] 	0
scalar geant_cost_network.node[17].content_store 	decision_no[17] 	0
scalar geant_cost_network.node[17].content_store 	decision_ratio[17] 	0
scalar geant_cost_network.node[18].core_layer 	interests[18] 	110282
scalar geant_cost_network.node[18].core_layer 	data[18] 	104391
scalar geant_cost_network.node[18].content_store 	p_hit[18] 	0.053426669810123
scalar geant_cost_network.node[18].content_store 	hits[18] 	5892
scalar geant_cost_network.node[18].content_store 	misses[18] 	104390
scalar geant_cost_network.node[18].content_store 	decision_yes[18] 	104390
scalar geant_cost_network.node[18].content_store 	decision_no[18] 	0
scalar geant_cost_network.node[18].content_store 	decision_ratio[18] 	1
scalar geant_cost_network.node[19].core_layer 	interests[19] 	0
scalar geant_cost_network.node[19].core_layer 	data[19] 	0
scalar geant_cost_network.node[19].content_store 	p_hit[19] 	-nan
scalar geant_cost_network.node[19].content_store 	hits[19] 	0
scalar geant_cost_network.node[19].content_store 	misses[19] 	0
scalar geant_cost_network.node[19].content_store 	decision_yes[19] 	0
scalar geant_cost_network.node[19].content_store 	decision_no[19] 	0
scalar geant_cost_network.node[19].content_store 	decision_ratio[19] 	0
scalar geant_cost_network.node[20].core_layer 	interests[20] 	180359
scalar geant_cost_network.node[20].core_layer 	data[20] 	140446
scalar geant_cost_network.node[20].content_store 	p_hit[20] 	0.21981714247695
scalar geant_cost_network.node[20].content_store 	hits[20] 	39646
scalar geant_cost_network.node[20].content_store 	misses[20] 	140713
scalar geant_cost_network.node[20].content_store 	decision_yes[20] 	140446
scalar geant_cost_network.node[20].content_store 	decision_no[20] 	0
scalar geant_cost_network.node[20].content_store 	decision_ratio[20] 	1
scalar geant_cost_network.node[21].core_layer 	interests[21] 	162411
scalar geant_cost_network.node[21].core_layer 	data[21] 	160906
scalar geant_cost_network.node[21].content_store 	p_hit[21] 	0.0092666137145883
scalar geant_cost_network.node[21].content_store 	hits[21] 	1505
scalar geant_cost_network.node[21].content_store 	misses[21] 	160906
scalar geant_cost_network.node[21].content_store 	decision_yes[21] 	160906
scalar geant_cost_network.node[21].content_store 	decision_no[21] 	0
scalar geant_cost_network.node[21].content_store 	decision_ratio[21] 	1
scalar geant_cost_network.node[22].core_layer 	interests[22] 	170288
scalar geant_cost_network.node[22].core_layer 	repo_load[22] 	170288
scalar geant_cost_network.node[22].core_layer 	data[22] 	0
scalar geant_cost_network.node[22].content_store 	p_hit[22] 	0
scalar geant_cost_network.node[22].content_store 	hits[22] 	0
scalar geant_cost_network.node[22].content_store 	misses[22] 	170288
scalar geant_cost_network.node[22].content_store 	decision_yes[22] 	0
scalar geant_cost_network.node[22].content_store 	decision_no[22] 	170288
scalar geant_cost_network.node[22].content_store 	decision_ratio[22] 	0
scalar geant_cost_network.node[23].core_layer 	interests[23] 	173385
scalar geant_cost_network.node[23].core_layer 	repo_load[23] 	173385
scalar geant_cost_network.node[23].core_layer 	data[23] 	0
scalar geant_cost_network.node[23].content_store 	p_hit[23] 	0
scalar geant_cost_network.node[23].content_store 	hits[23] 	0
scalar geant_cost_network.node[23].content_store 	misses[23] 	173385
scalar geant_cost_network.node[23].content_store 	decision_yes[23] 	0
scalar geant_cost_network.node[23].content_store 	decision_no[23] 	173385
scalar geant_cost_network.node[23].content_store 	decision_ratio[23] 	0
scalar geant_cost_network.node[24].core_layer 	interests[24] 	160906
scalar geant_cost_network.node[24].core_layer 	repo_load[24] 	160906
scalar geant_cost_network.node[24].core_layer 	data[24] 	0
scalar geant_cost_network.node[24].content_store 	p_hit[24] 	0
scalar geant_cost_network.node[24].content_store 	hits[24] 	0
scalar geant_cost_network.node[24].content_store 	misses[24] 	160906
scalar geant_cost_network.node[24].content_store 	decision_yes[24] 	0
scalar geant_cost_network.node[24].content_store 	decision_no[24] 	160906
scalar geant_cost_network.node[24].content_store 	decision_ratio[24] 	0
scalar geant_cost_network.client[5] 	hdistance[5] 	2.8291879683354
scalar geant_cost_network.client[5] 	downloads[5] 	179759
scalar geant_cost_network.client[5] 	avg_time[5] 	0.009991168096
scalar geant_cost_network.client[5] 	interests_sent[5] 	180177
scalar geant_cost_network.client[9] 	hdistance[9] 	2.835227683663
scalar geant_cost_network.client[9] 	downloads[9] 	179745
scalar geant_cost_network.client[9] 	avg_time[9] 	0.006006307361
scalar geant_cost_network.client[9] 	interests_sent[9] 	180004
scalar geant_cost_network.client[10] 	hdistance[10] 	3.5313813596173
scalar geant_cost_network.client[10] 	downloads[10] 	179374
scalar geant_cost_network.client[10] 	avg_time[10] 	0.007417275663
scalar geant_cost_network.client[10] 	interests_sent[10] 	179658
scalar geant_cost_network.client[12] 	hdistance[12] 	2.8680960539312
scalar geant_cost_network.client[12] 	downloads[12] 	179191
scalar geant_cost_network.client[12] 	avg_time[12] 	0.006942928205
scalar geant_cost_network.client[12] 	interests_sent[12] 	179697
scalar geant_cost_network.client[20] 	hdistance[20] 	3.1970402302043
scalar geant_cost_network.client[20] 	downloads[20] 	180014
scalar geant_cost_network.client[20] 	avg_time[20] 	0.007576470881
scalar geant_cost_network.client[20] 	interests_sent[20] 	180281
