version 2
run General-17-20140627-18:56:09-15292
attr D lce
attr F nrr
attr R lru
attr a 1
attr configname General
attr csize 1e3
attr ctlg 1e5
attr datetime 20140627-18:56:09
attr experiment General
attr inifile omnetpp.ini
attr iterationvars "$net=geant_cost, $rep=20, $priceratiovalue=10, $weights=0.333_0.333_0.334, $lambda=100, $a=1, $ctlg=1e5, $F=nrr, $ttl=1000, $D=lce, $xi=1, $R=lru, $csize=1e3, $pricebits=0, $window=60, $variance=0.05, $mytime=1800"
attr iterationvars2 "$net=geant_cost, $rep=20, $priceratiovalue=10, $weights=0.333_0.333_0.334, $lambda=100, $a=1, $ctlg=1e5, $F=nrr, $ttl=1000, $D=lce, $xi=1, $R=lru, $csize=1e3, $pricebits=0, $window=60, $variance=0.05, $mytime=1800, $repetition=0"
attr lambda 100
attr measurement "$net=geant_cost, $rep=20, $priceratiovalue=10, $weights=0.333_0.333_0.334, $lambda=100, $a=1, $ctlg=1e5, $F=nrr, $ttl=1000, $D=lce, $xi=1, $R=lru, $csize=1e3, $pricebits=0, $window=60, $variance=0.05, $mytime=1800"
attr mytime 1800
attr net geant_cost
attr network "networks.${net=geant_cost, abilene_cost}_network"
attr pricebits 0
attr priceratiovalue 10
attr processid 15292
attr rep 20
attr repetition 0
attr replication #0
attr resultdir results
attr runnumber 17
attr seedset 20
attr ttl 1000
attr variance 0.05
attr weights 0.333_0.333_0.334
attr window 60
attr xi 1

scalar . 	a 	1
scalar . 	csize 	1e3
scalar . 	ctlg 	1e5
scalar . 	lambda 	100
scalar . 	mytime 	1800
scalar . 	pricebits 	0
scalar . 	priceratiovalue 	10
scalar . 	rep 	20
scalar . 	ttl 	1000
scalar . 	variance 	0.05
scalar . 	window 	60
scalar . 	xi 	1
scalar geant_cost_network.content_distribution 	repo-0 	22
scalar geant_cost_network.content_distribution 	repo-1 	23
scalar geant_cost_network.content_distribution 	repo-2 	24
scalar geant_cost_network.content_distribution 	client-0 	20
scalar geant_cost_network.content_distribution 	client-1 	10
scalar geant_cost_network.content_distribution 	client-2 	12
scalar geant_cost_network.content_distribution 	client-3 	9
scalar geant_cost_network.content_distribution 	client-4 	5
scalar geant_cost_network.content_distribution 	repo-0_card 	33321
scalar geant_cost_network.content_distribution 	repo-1_card 	33296
scalar geant_cost_network.content_distribution 	repo-2_card 	33383
scalar geant_cost_network.statistics 	repo_popularity[0] 	0.30078651597297
scalar geant_cost_network.statistics 	repo_popularity[1] 	0.29276091736323
scalar geant_cost_network.statistics 	repo_popularity[2] 	0.4064525666638
scalar geant_cost_network.statistics 	stabilization_time 	36060
scalar geant_cost_network.node[7].face$o[4].channel 	price[7] 	0
scalar geant_cost_network.node[7].face$o[4].channel 	represented_price[7] 	0
scalar geant_cost_network.node[8].face$o[3].channel 	price[8] 	0
scalar geant_cost_network.node[8].face$o[3].channel 	represented_price[8] 	0
scalar geant_cost_network.node[21].face$o[5].channel 	price[21] 	0
scalar geant_cost_network.node[21].face$o[5].channel 	represented_price[21] 	0
scalar geant_cost_network.node[22].face$o[1].channel 	price[22] 	0
scalar geant_cost_network.node[22].face$o[1].channel 	represented_price[22] 	0
scalar geant_cost_network.node[23].face$o[1].channel 	price[23] 	1
scalar geant_cost_network.node[23].face$o[1].channel 	represented_price[23] 	1
scalar geant_cost_network.node[24].face$o[1].channel 	price[24] 	10
scalar geant_cost_network.node[24].face$o[1].channel 	represented_price[24] 	10
scalar geant_cost_network.statistics 	p_hit 	0.12527890644435
scalar geant_cost_network.statistics 	interests 	125418.4
scalar geant_cost_network.statistics 	data 	89415.64
scalar geant_cost_network.statistics 	hdistance 	3.0522429406907
scalar geant_cost_network.statistics 	avg_time 	0.007634061065
scalar geant_cost_network.statistics 	downloads 	898064
scalar geant_cost_network.statistics 	total_cost 	1815366
scalar geant_cost_network.statistics 	total_replicas 	100000
scalar geant_cost_network.statistics 	inner_hit 	0.43897762297565
scalar geant_cost_network.statistics 	interests_sent 	900069
scalar geant_cost_network.node[0].core_layer 	interests[0] 	0
scalar geant_cost_network.node[0].core_layer 	data[0] 	0
scalar geant_cost_network.node[0].core_layer 	repo_int[0] 	503834
scalar geant_cost_network.node[0].content_store 	p_hit[0] 	-nan
scalar geant_cost_network.node[0].content_store 	hits[0] 	0
scalar geant_cost_network.node[0].content_store 	misses[0] 	0
scalar geant_cost_network.node[0].content_store 	decision_yes[0] 	0
scalar geant_cost_network.node[0].content_store 	decision_no[0] 	0
scalar geant_cost_network.node[0].content_store 	decision_ratio[0] 	0
scalar geant_cost_network.node[1].core_layer 	interests[1] 	0
scalar geant_cost_network.node[1].core_layer 	data[1] 	0
scalar geant_cost_network.node[1].content_store 	p_hit[1] 	-nan
scalar geant_cost_network.node[1].content_store 	hits[1] 	0
scalar geant_cost_network.node[1].content_store 	misses[1] 	0
scalar geant_cost_network.node[1].content_store 	decision_yes[1] 	0
scalar geant_cost_network.node[1].content_store 	decision_no[1] 	0
scalar geant_cost_network.node[1].content_store 	decision_ratio[1] 	0
scalar geant_cost_network.node[2].core_layer 	interests[2] 	0
scalar geant_cost_network.node[2].core_layer 	data[2] 	0
scalar geant_cost_network.node[2].content_store 	p_hit[2] 	-nan
scalar geant_cost_network.node[2].content_store 	hits[2] 	0
scalar geant_cost_network.node[2].content_store 	misses[2] 	0
scalar geant_cost_network.node[2].content_store 	decision_yes[2] 	0
scalar geant_cost_network.node[2].content_store 	decision_no[2] 	0
scalar geant_cost_network.node[2].content_store 	decision_ratio[2] 	0
scalar geant_cost_network.node[3].core_layer 	interests[3] 	143967
scalar geant_cost_network.node[3].core_layer 	data[3] 	139985
scalar geant_cost_network.node[3].content_store 	p_hit[3] 	0.027659116325269
scalar geant_cost_network.node[3].content_store 	hits[3] 	3982
scalar geant_cost_network.node[3].content_store 	misses[3] 	139985
scalar geant_cost_network.node[3].content_store 	decision_yes[3] 	139968
scalar geant_cost_network.node[3].content_store 	decision_no[3] 	0
scalar geant_cost_network.node[3].content_store 	decision_ratio[3] 	1
scalar geant_cost_network.node[4].core_layer 	interests[4] 	216774
scalar geant_cost_network.node[4].core_layer 	data[4] 	215623
scalar geant_cost_network.node[4].content_store 	p_hit[4] 	0.0053004511611171
scalar geant_cost_network.node[4].content_store 	hits[4] 	1149
scalar geant_cost_network.node[4].content_store 	misses[4] 	215625
scalar geant_cost_network.node[4].content_store 	decision_yes[4] 	215602
scalar geant_cost_network.node[4].content_store 	decision_no[4] 	0
scalar geant_cost_network.node[4].content_store 	decision_ratio[4] 	1
scalar geant_cost_network.node[5].core_layer 	interests[5] 	183457
scalar geant_cost_network.node[5].core_layer 	data[5] 	141479
scalar geant_cost_network.node[5].content_store 	p_hit[5] 	0.22657625492622
scalar geant_cost_network.node[5].content_store 	hits[5] 	41567
scalar geant_cost_network.node[5].content_store 	misses[5] 	141890
scalar geant_cost_network.node[5].content_store 	decision_yes[5] 	141479
scalar geant_cost_network.node[5].content_store 	decision_no[5] 	0
scalar geant_cost_network.node[5].content_store 	decision_ratio[5] 	1
scalar geant_cost_network.node[6].core_layer 	interests[6] 	71477
scalar geant_cost_network.node[6].core_layer 	data[6] 	68324
scalar geant_cost_network.node[6].content_store 	p_hit[6] 	0.044112092001623
scalar geant_cost_network.node[6].content_store 	hits[6] 	3153
scalar geant_cost_network.node[6].content_store 	misses[6] 	68324
scalar geant_cost_network.node[6].content_store 	decision_yes[6] 	68324
scalar geant_cost_network.node[6].content_store 	decision_no[6] 	0
scalar geant_cost_network.node[6].content_store 	decision_ratio[6] 	1
scalar geant_cost_network.node[7].core_layer 	interests[7] 	239960
scalar geant_cost_network.node[7].core_layer 	data[7] 	238451
scalar geant_cost_network.node[7].content_store 	p_hit[7] 	0.0062677112852142
scalar geant_cost_network.node[7].content_store 	hits[7] 	1504
scalar geant_cost_network.node[7].content_store 	misses[7] 	238456
scalar geant_cost_network.node[7].content_store 	decision_yes[7] 	238442
scalar geant_cost_network.node[7].content_store 	decision_no[7] 	0
scalar geant_cost_network.node[7].content_store 	decision_ratio[7] 	1
scalar geant_cost_network.node[8].core_layer 	interests[8] 	242538
scalar geant_cost_network.node[8].core_layer 	data[8] 	240689
scalar geant_cost_network.node[8].content_store 	p_hit[8] 	0.0076235476502651
scalar geant_cost_network.node[8].content_store 	hits[8] 	1849
scalar geant_cost_network.node[8].content_store 	misses[8] 	240689
scalar geant_cost_network.node[8].content_store 	decision_yes[8] 	240674
scalar geant_cost_network.node[8].content_store 	decision_no[8] 	0
scalar geant_cost_network.node[8].content_store 	decision_ratio[8] 	1
scalar geant_cost_network.node[9].core_layer 	interests[9] 	357632
scalar geant_cost_network.node[9].core_layer 	data[9] 	315868
scalar geant_cost_network.node[9].content_store 	p_hit[9] 	0.11453393432355
scalar geant_cost_network.node[9].content_store 	hits[9] 	40961
scalar geant_cost_network.node[9].content_store 	misses[9] 	316671
scalar geant_cost_network.node[9].content_store 	decision_yes[9] 	315829
scalar geant_cost_network.node[9].content_store 	decision_no[9] 	0
scalar geant_cost_network.node[9].content_store 	decision_ratio[9] 	1
scalar geant_cost_network.node[10].core_layer 	interests[10] 	190296
scalar geant_cost_network.node[10].core_layer 	data[10] 	138677
scalar geant_cost_network.node[10].content_store 	p_hit[10] 	0.26980598646319
scalar geant_cost_network.node[10].content_store 	hits[10] 	51343
scalar geant_cost_network.node[10].content_store 	misses[10] 	138953
scalar geant_cost_network.node[10].content_store 	decision_yes[10] 	138677
scalar geant_cost_network.node[10].content_store 	decision_no[10] 	0
scalar geant_cost_network.node[10].content_store 	decision_ratio[10] 	1
scalar geant_cost_network.node[11].core_layer 	interests[11] 	0
scalar geant_cost_network.node[11].core_layer 	data[11] 	0
scalar geant_cost_network.node[11].content_store 	p_hit[11] 	-nan
scalar geant_cost_network.node[11].content_store 	hits[11] 	0
scalar geant_cost_network.node[11].content_store 	misses[11] 	0
scalar geant_cost_network.node[11].content_store 	decision_yes[11] 	0
scalar geant_cost_network.node[11].content_store 	decision_no[11] 	0
scalar geant_cost_network.node[11].content_store 	decision_ratio[11] 	0
scalar geant_cost_network.node[12].core_layer 	interests[12] 	315906
scalar geant_cost_network.node[12].core_layer 	data[12] 	261210
scalar geant_cost_network.node[12].content_store 	p_hit[12] 	0.16861028280564
scalar geant_cost_network.node[12].content_store 	hits[12] 	53265
scalar geant_cost_network.node[12].content_store 	misses[12] 	262641
scalar geant_cost_network.node[12].content_store 	decision_yes[12] 	261206
scalar geant_cost_network.node[12].content_store 	decision_no[12] 	0
scalar geant_cost_network.node[12].content_store 	decision_ratio[12] 	1
scalar geant_cost_network.node[13].core_layer 	interests[13] 	51384
scalar geant_cost_network.node[13].core_layer 	data[13] 	1064
scalar geant_cost_network.node[13].content_store 	p_hit[13] 	0.97929316518761
scalar geant_cost_network.node[13].content_store 	hits[13] 	50320
scalar geant_cost_network.node[13].content_store 	misses[13] 	1064
scalar geant_cost_network.node[13].content_store 	decision_yes[13] 	1064
scalar geant_cost_network.node[13].content_store 	decision_no[13] 	0
scalar geant_cost_network.node[13].content_store 	decision_ratio[13] 	1
scalar geant_cost_network.node[14].core_layer 	interests[14] 	88455
scalar geant_cost_network.node[14].core_layer 	data[14] 	65731
scalar geant_cost_network.node[14].content_store 	p_hit[14] 	0.25510146402125
scalar geant_cost_network.node[14].content_store 	hits[14] 	22565
scalar geant_cost_network.node[14].content_store 	misses[14] 	65890
scalar geant_cost_network.node[14].content_store 	decision_yes[14] 	65725
scalar geant_cost_network.node[14].content_store 	decision_no[14] 	0
scalar geant_cost_network.node[14].content_store 	decision_ratio[14] 	1
scalar geant_cost_network.node[15].core_layer 	interests[15] 	74503
scalar geant_cost_network.node[15].core_layer 	data[15] 	9
scalar geant_cost_network.node[15].content_store 	p_hit[15] 	0.99987919949532
scalar geant_cost_network.node[15].content_store 	hits[15] 	74494
scalar geant_cost_network.node[15].content_store 	misses[15] 	9
scalar geant_cost_network.node[15].content_store 	decision_yes[15] 	9
scalar geant_cost_network.node[15].content_store 	decision_no[15] 	0
scalar geant_cost_network.node[15].content_store 	decision_ratio[15] 	1
scalar geant_cost_network.node[16].core_layer 	interests[16] 	0
scalar geant_cost_network.node[16].core_layer 	data[16] 	0
scalar geant_cost_network.node[16].content_store 	p_hit[16] 	-nan
scalar geant_cost_network.node[16].content_store 	hits[16] 	0
scalar geant_cost_network.node[16].content_store 	misses[16] 	0
scalar geant_cost_network.node[16].content_store 	decision_yes[16] 	0
scalar geant_cost_network.node[16].content_store 	decision_no[16] 	0
scalar geant_cost_network.node[16].content_store 	decision_ratio[16] 	0
scalar geant_cost_network.node[17].core_layer 	interests[17] 	0
scalar geant_cost_network.node[17].core_layer 	data[17] 	0
scalar geant_cost_network.node[17].content_store 	p_hit[17] 	-nan
scalar geant_cost_network.node[17].content_store 	hits[17] 	0
scalar geant_cost_network.node[17].content_store 	misses[17] 	0
scalar geant_cost_network.node[17].content_store 	decision_yes[17] 	0
scalar geant_cost_network.node[17].content_store 	decision_no[17] 	0
scalar geant_cost_network.node[17].content_store 	decision_ratio[17] 	0
scalar geant_cost_network.node[18].core_layer 	interests[18] 	109335
scalar geant_cost_network.node[18].core_layer 	data[18] 	103623
scalar geant_cost_network.node[18].content_store 	p_hit[18] 	0.052243106050213
scalar geant_cost_network.node[18].content_store 	hits[18] 	5712
scalar geant_cost_network.node[18].content_store 	misses[18] 	103623
scalar geant_cost_network.node[18].content_store 	decision_yes[18] 	103623
scalar geant_cost_network.node[18].content_store 	decision_no[18] 	0
scalar geant_cost_network.node[18].content_store 	decision_ratio[18] 	1
scalar geant_cost_network.node[19].core_layer 	interests[19] 	0
scalar geant_cost_network.node[19].core_layer 	data[19] 	0
scalar geant_cost_network.node[19].content_store 	p_hit[19] 	-nan
scalar geant_cost_network.node[19].content_store 	hits[19] 	0
scalar geant_cost_network.node[19].content_store 	misses[19] 	0
scalar geant_cost_network.node[19].content_store 	decision_yes[19] 	0
scalar geant_cost_network.node[19].content_store 	decision_no[19] 	0
scalar geant_cost_network.node[19].content_store 	decision_ratio[19] 	0
scalar geant_cost_network.node[20].core_layer 	interests[20] 	179827
scalar geant_cost_network.node[20].core_layer 	data[20] 	140270
scalar geant_cost_network.node[20].content_store 	p_hit[20] 	0.21807626218532
scalar geant_cost_network.node[20].content_store 	hits[20] 	39216
scalar geant_cost_network.node[20].content_store 	misses[20] 	140611
scalar geant_cost_network.node[20].content_store 	decision_yes[20] 	140270
scalar geant_cost_network.node[20].content_store 	decision_no[20] 	0
scalar geant_cost_network.node[20].content_store 	decision_ratio[20] 	1
scalar geant_cost_network.node[21].core_layer 	interests[21] 	166115
scalar geant_cost_network.node[21].core_layer 	data[21] 	164388
scalar geant_cost_network.node[21].content_store 	p_hit[21] 	0.010396412124131
scalar geant_cost_network.node[21].content_store 	hits[21] 	1727
scalar geant_cost_network.node[21].content_store 	misses[21] 	164388
scalar geant_cost_network.node[21].content_store 	decision_yes[21] 	164388
scalar geant_cost_network.node[21].content_store 	decision_no[21] 	0
scalar geant_cost_network.node[21].content_store 	decision_ratio[21] 	1
scalar geant_cost_network.node[22].core_layer 	interests[22] 	167960
scalar geant_cost_network.node[22].core_layer 	repo_load[22] 	167960
scalar geant_cost_network.node[22].core_layer 	data[22] 	0
scalar geant_cost_network.node[22].content_store 	p_hit[22] 	0
scalar geant_cost_network.node[22].content_store 	hits[22] 	0
scalar geant_cost_network.node[22].content_store 	misses[22] 	167960
scalar geant_cost_network.node[22].content_store 	decision_yes[22] 	0
scalar geant_cost_network.node[22].content_store 	decision_no[22] 	167960
scalar geant_cost_network.node[22].content_store 	decision_ratio[22] 	0
scalar geant_cost_network.node[23].core_layer 	interests[23] 	171486
scalar geant_cost_network.node[23].core_layer 	repo_load[23] 	171486
scalar geant_cost_network.node[23].core_layer 	data[23] 	0
scalar geant_cost_network.node[23].content_store 	p_hit[23] 	0
scalar geant_cost_network.node[23].content_store 	hits[23] 	0
scalar geant_cost_network.node[23].content_store 	misses[23] 	171486
scalar geant_cost_network.node[23].content_store 	decision_yes[23] 	0
scalar geant_cost_network.node[23].content_store 	decision_no[23] 	171486
scalar geant_cost_network.node[23].content_store 	decision_ratio[23] 	0
scalar geant_cost_network.node[24].core_layer 	interests[24] 	164388
scalar geant_cost_network.node[24].core_layer 	repo_load[24] 	164388
scalar geant_cost_network.node[24].core_layer 	data[24] 	0
scalar geant_cost_network.node[24].content_store 	p_hit[24] 	0
scalar geant_cost_network.node[24].content_store 	hits[24] 	0
scalar geant_cost_network.node[24].content_store 	misses[24] 	164388
scalar geant_cost_network.node[24].content_store 	decision_yes[24] 	0
scalar geant_cost_network.node[24].content_store 	decision_no[24] 	164388
scalar geant_cost_network.node[24].content_store 	decision_ratio[24] 	0
scalar geant_cost_network.client[5] 	hdistance[5] 	2.8087577746966
scalar geant_cost_network.client[5] 	downloads[5] 	179589
scalar geant_cost_network.client[5] 	avg_time[5] 	0.009984199679
scalar geant_cost_network.client[5] 	interests_sent[5] 	179996
scalar geant_cost_network.client[9] 	hdistance[9] 	2.8493099651924
scalar geant_cost_network.client[9] 	downloads[9] 	179846
scalar geant_cost_network.client[9] 	avg_time[9] 	0.005971195791
scalar geant_cost_network.client[9] 	interests_sent[9] 	180189
scalar geant_cost_network.client[10] 	hdistance[10] 	3.5413811926963
scalar geant_cost_network.client[10] 	downloads[10] 	179526
scalar geant_cost_network.client[10] 	avg_time[10] 	0.007436074594
scalar geant_cost_network.client[10] 	interests_sent[10] 	179802
scalar geant_cost_network.client[12] 	hdistance[12] 	2.8686457887095
scalar geant_cost_network.client[12] 	downloads[12] 	179743
scalar geant_cost_network.client[12] 	avg_time[12] 	0.007196695585
scalar geant_cost_network.client[12] 	interests_sent[12] 	180381
scalar geant_cost_network.client[20] 	hdistance[20] 	3.1931199821587
scalar geant_cost_network.client[20] 	downloads[20] 	179360
scalar geant_cost_network.client[20] 	avg_time[20] 	0.007582139676
scalar geant_cost_network.client[20] 	interests_sent[20] 	179701
