version 2
run General-25-20140627-18:56:05-22700
attr D lce
attr F nrr
attr R lru
attr a 1
attr configname General
attr csize 1e3
attr ctlg 1e5
attr datetime 20140627-18:56:05
attr experiment General
attr inifile omnetpp.ini
attr iterationvars "$net=geant_cost, $rep=17, $priceratiovalue=10, $weights=0.333_0.333_0.334, $lambda=100, $a=1, $ctlg=1e5, $F=nrr, $ttl=1000, $D=lce, $xi=1, $R=lru, $csize=1e3, $pricebits=0, $window=60, $variance=0.05, $mytime=1800"
attr iterationvars2 "$net=geant_cost, $rep=17, $priceratiovalue=10, $weights=0.333_0.333_0.334, $lambda=100, $a=1, $ctlg=1e5, $F=nrr, $ttl=1000, $D=lce, $xi=1, $R=lru, $csize=1e3, $pricebits=0, $window=60, $variance=0.05, $mytime=1800, $repetition=0"
attr lambda 100
attr measurement "$net=geant_cost, $rep=17, $priceratiovalue=10, $weights=0.333_0.333_0.334, $lambda=100, $a=1, $ctlg=1e5, $F=nrr, $ttl=1000, $D=lce, $xi=1, $R=lru, $csize=1e3, $pricebits=0, $window=60, $variance=0.05, $mytime=1800"
attr mytime 1800
attr net geant_cost
attr network "networks.${net=geant_cost, abilene_cost}_network"
attr pricebits 0
attr priceratiovalue 10
attr processid 22700
attr rep 17
attr repetition 0
attr replication #0
attr resultdir results
attr runnumber 25
attr seedset 17
attr ttl 1000
attr variance 0.05
attr weights 0.333_0.333_0.334
attr window 60
attr xi 1

scalar . 	a 	1
scalar . 	csize 	1e3
scalar . 	ctlg 	1e5
scalar . 	lambda 	100
scalar . 	mytime 	1800
scalar . 	pricebits 	0
scalar . 	priceratiovalue 	10
scalar . 	rep 	17
scalar . 	ttl 	1000
scalar . 	variance 	0.05
scalar . 	window 	60
scalar . 	xi 	1
scalar geant_cost_network.content_distribution 	repo-0 	22
scalar geant_cost_network.content_distribution 	repo-1 	23
scalar geant_cost_network.content_distribution 	repo-2 	24
scalar geant_cost_network.content_distribution 	client-0 	20
scalar geant_cost_network.content_distribution 	client-1 	10
scalar geant_cost_network.content_distribution 	client-2 	12
scalar geant_cost_network.content_distribution 	client-3 	9
scalar geant_cost_network.content_distribution 	client-4 	5
scalar geant_cost_network.content_distribution 	repo-0_card 	33432
scalar geant_cost_network.content_distribution 	repo-1_card 	33238
scalar geant_cost_network.content_distribution 	repo-2_card 	33330
scalar geant_cost_network.statistics 	repo_popularity[0] 	0.29357061690373
scalar geant_cost_network.statistics 	repo_popularity[1] 	0.31455664157995
scalar geant_cost_network.statistics 	repo_popularity[2] 	0.39187274151631
scalar geant_cost_network.statistics 	stabilization_time 	36060
scalar geant_cost_network.node[7].face$o[4].channel 	price[7] 	0
scalar geant_cost_network.node[7].face$o[4].channel 	represented_price[7] 	0
scalar geant_cost_network.node[8].face$o[3].channel 	price[8] 	0
scalar geant_cost_network.node[8].face$o[3].channel 	represented_price[8] 	0
scalar geant_cost_network.node[21].face$o[5].channel 	price[21] 	0
scalar geant_cost_network.node[21].face$o[5].channel 	represented_price[21] 	0
scalar geant_cost_network.node[22].face$o[1].channel 	price[22] 	0
scalar geant_cost_network.node[22].face$o[1].channel 	represented_price[22] 	0
scalar geant_cost_network.node[23].face$o[1].channel 	price[23] 	1
scalar geant_cost_network.node[23].face$o[1].channel 	represented_price[23] 	1
scalar geant_cost_network.node[24].face$o[1].channel 	price[24] 	10
scalar geant_cost_network.node[24].face$o[1].channel 	represented_price[24] 	10
scalar geant_cost_network.statistics 	p_hit 	0.12511674578241
scalar geant_cost_network.statistics 	interests 	125529.16
scalar geant_cost_network.statistics 	data 	89507.32
scalar geant_cost_network.statistics 	hdistance 	3.0525026664889
scalar geant_cost_network.statistics 	avg_time 	0.007538895558
scalar geant_cost_network.statistics 	downloads 	898721
scalar geant_cost_network.statistics 	total_cost 	1836192
scalar geant_cost_network.statistics 	total_replicas 	100000
scalar geant_cost_network.statistics 	inner_hit 	0.43830955324289
scalar geant_cost_network.statistics 	interests_sent 	900551
scalar geant_cost_network.node[0].core_layer 	interests[0] 	0
scalar geant_cost_network.node[0].core_layer 	data[0] 	0
scalar geant_cost_network.node[0].core_layer 	repo_int[0] 	504803
scalar geant_cost_network.node[0].content_store 	p_hit[0] 	-nan
scalar geant_cost_network.node[0].content_store 	hits[0] 	0
scalar geant_cost_network.node[0].content_store 	misses[0] 	0
scalar geant_cost_network.node[0].content_store 	decision_yes[0] 	0
scalar geant_cost_network.node[0].content_store 	decision_no[0] 	0
scalar geant_cost_network.node[0].content_store 	decision_ratio[0] 	0
scalar geant_cost_network.node[1].core_layer 	interests[1] 	0
scalar geant_cost_network.node[1].core_layer 	data[1] 	0
scalar geant_cost_network.node[1].content_store 	p_hit[1] 	-nan
scalar geant_cost_network.node[1].content_store 	hits[1] 	0
scalar geant_cost_network.node[1].content_store 	misses[1] 	0
scalar geant_cost_network.node[1].content_store 	decision_yes[1] 	0
scalar geant_cost_network.node[1].content_store 	decision_no[1] 	0
scalar geant_cost_network.node[1].content_store 	decision_ratio[1] 	0
scalar geant_cost_network.node[2].core_layer 	interests[2] 	0
scalar geant_cost_network.node[2].core_layer 	data[2] 	0
scalar geant_cost_network.node[2].content_store 	p_hit[2] 	-nan
scalar geant_cost_network.node[2].content_store 	hits[2] 	0
scalar geant_cost_network.node[2].content_store 	misses[2] 	0
scalar geant_cost_network.node[2].content_store 	decision_yes[2] 	0
scalar geant_cost_network.node[2].content_store 	decision_no[2] 	0
scalar geant_cost_network.node[2].content_store 	decision_ratio[2] 	0
scalar geant_cost_network.node[3].core_layer 	interests[3] 	142575
scalar geant_cost_network.node[3].core_layer 	data[3] 	138764
scalar geant_cost_network.node[3].content_store 	p_hit[3] 	0.026729791337892
scalar geant_cost_network.node[3].content_store 	hits[3] 	3811
scalar geant_cost_network.node[3].content_store 	misses[3] 	138764
scalar geant_cost_network.node[3].content_store 	decision_yes[3] 	138739
scalar geant_cost_network.node[3].content_store 	decision_no[3] 	0
scalar geant_cost_network.node[3].content_store 	decision_ratio[3] 	1
scalar geant_cost_network.node[4].core_layer 	interests[4] 	216022
scalar geant_cost_network.node[4].core_layer 	data[4] 	214864
scalar geant_cost_network.node[4].content_store 	p_hit[4] 	0.0053559359694846
scalar geant_cost_network.node[4].content_store 	hits[4] 	1157
scalar geant_cost_network.node[4].content_store 	misses[4] 	214865
scalar geant_cost_network.node[4].content_store 	decision_yes[4] 	214839
scalar geant_cost_network.node[4].content_store 	decision_no[4] 	0
scalar geant_cost_network.node[4].content_store 	decision_ratio[4] 	1
scalar geant_cost_network.node[5].core_layer 	interests[5] 	183211
scalar geant_cost_network.node[5].core_layer 	data[5] 	141098
scalar geant_cost_network.node[5].content_store 	p_hit[5] 	0.22750271544831
scalar geant_cost_network.node[5].content_store 	hits[5] 	41681
scalar geant_cost_network.node[5].content_store 	misses[5] 	141530
scalar geant_cost_network.node[5].content_store 	decision_yes[5] 	141098
scalar geant_cost_network.node[5].content_store 	decision_no[5] 	0
scalar geant_cost_network.node[5].content_store 	decision_ratio[5] 	1
scalar geant_cost_network.node[6].core_layer 	interests[6] 	71288
scalar geant_cost_network.node[6].core_layer 	data[6] 	68086
scalar geant_cost_network.node[6].content_store 	p_hit[6] 	0.044916395466278
scalar geant_cost_network.node[6].content_store 	hits[6] 	3202
scalar geant_cost_network.node[6].content_store 	misses[6] 	68086
scalar geant_cost_network.node[6].content_store 	decision_yes[6] 	68086
scalar geant_cost_network.node[6].content_store 	decision_no[6] 	0
scalar geant_cost_network.node[6].content_store 	decision_ratio[6] 	1
scalar geant_cost_network.node[7].core_layer 	interests[7] 	234940
scalar geant_cost_network.node[7].core_layer 	data[7] 	233534
scalar geant_cost_network.node[7].content_store 	p_hit[7] 	0.0059759938707755
scalar geant_cost_network.node[7].content_store 	hits[7] 	1404
scalar geant_cost_network.node[7].content_store 	misses[7] 	233536
scalar geant_cost_network.node[7].content_store 	decision_yes[7] 	233526
scalar geant_cost_network.node[7].content_store 	decision_no[7] 	0
scalar geant_cost_network.node[7].content_store 	decision_ratio[7] 	1
scalar geant_cost_network.node[8].core_layer 	interests[8] 	246917
scalar geant_cost_network.node[8].core_layer 	data[8] 	244927
scalar geant_cost_network.node[8].content_store 	p_hit[8] 	0.008059388377471
scalar geant_cost_network.node[8].content_store 	hits[8] 	1990
scalar geant_cost_network.node[8].content_store 	misses[8] 	244927
scalar geant_cost_network.node[8].content_store 	decision_yes[8] 	244917
scalar geant_cost_network.node[8].content_store 	decision_no[8] 	0
scalar geant_cost_network.node[8].content_store 	decision_ratio[8] 	1
scalar geant_cost_network.node[9].core_layer 	interests[9] 	359959
scalar geant_cost_network.node[9].core_layer 	data[9] 	318174
scalar geant_cost_network.node[9].content_store 	p_hit[9] 	0.11411021810817
scalar geant_cost_network.node[9].content_store 	hits[9] 	41075
scalar geant_cost_network.node[9].content_store 	misses[9] 	318884
scalar geant_cost_network.node[9].content_store 	decision_yes[9] 	318121
scalar geant_cost_network.node[9].content_store 	decision_no[9] 	0
scalar geant_cost_network.node[9].content_store 	decision_ratio[9] 	1
scalar geant_cost_network.node[10].core_layer 	interests[10] 	191407
scalar geant_cost_network.node[10].core_layer 	data[10] 	139995
scalar geant_cost_network.node[10].content_store 	p_hit[10] 	0.26723160594963
scalar geant_cost_network.node[10].content_store 	hits[10] 	51150
scalar geant_cost_network.node[10].content_store 	misses[10] 	140257
scalar geant_cost_network.node[10].content_store 	decision_yes[10] 	139995
scalar geant_cost_network.node[10].content_store 	decision_no[10] 	0
scalar geant_cost_network.node[10].content_store 	decision_ratio[10] 	1
scalar geant_cost_network.node[11].core_layer 	interests[11] 	0
scalar geant_cost_network.node[11].core_layer 	data[11] 	0
scalar geant_cost_network.node[11].content_store 	p_hit[11] 	-nan
scalar geant_cost_network.node[11].content_store 	hits[11] 	0
scalar geant_cost_network.node[11].content_store 	misses[11] 	0
scalar geant_cost_network.node[11].content_store 	decision_yes[11] 	0
scalar geant_cost_network.node[11].content_store 	decision_no[11] 	0
scalar geant_cost_network.node[11].content_store 	decision_ratio[11] 	0
scalar geant_cost_network.node[12].core_layer 	interests[12] 	315996
scalar geant_cost_network.node[12].core_layer 	data[12] 	261470
scalar geant_cost_network.node[12].content_store 	p_hit[12] 	0.16861922302814
scalar geant_cost_network.node[12].content_store 	hits[12] 	53283
scalar geant_cost_network.node[12].content_store 	misses[12] 	262713
scalar geant_cost_network.node[12].content_store 	decision_yes[12] 	261466
scalar geant_cost_network.node[12].content_store 	decision_no[12] 	0
scalar geant_cost_network.node[12].content_store 	decision_ratio[12] 	1
scalar geant_cost_network.node[13].core_layer 	interests[13] 	49428
scalar geant_cost_network.node[13].core_layer 	data[13] 	1072
scalar geant_cost_network.node[13].content_store 	p_hit[13] 	0.97831188799871
scalar geant_cost_network.node[13].content_store 	hits[13] 	48356
scalar geant_cost_network.node[13].content_store 	misses[13] 	1072
scalar geant_cost_network.node[13].content_store 	decision_yes[13] 	1072
scalar geant_cost_network.node[13].content_store 	decision_no[13] 	0
scalar geant_cost_network.node[13].content_store 	decision_ratio[13] 	1
scalar geant_cost_network.node[14].core_layer 	interests[14] 	87788
scalar geant_cost_network.node[14].core_layer 	data[14] 	65915
scalar geant_cost_network.node[14].content_store 	p_hit[14] 	0.24759648243496
scalar geant_cost_network.node[14].content_store 	hits[14] 	21736
scalar geant_cost_network.node[14].content_store 	misses[14] 	66052
scalar geant_cost_network.node[14].content_store 	decision_yes[14] 	65911
scalar geant_cost_network.node[14].content_store 	decision_no[14] 	0
scalar geant_cost_network.node[14].content_store 	decision_ratio[14] 	1
scalar geant_cost_network.node[15].core_layer 	interests[15] 	77049
scalar geant_cost_network.node[15].core_layer 	data[15] 	6
scalar geant_cost_network.node[15].content_store 	p_hit[15] 	0.99992212747732
scalar geant_cost_network.node[15].content_store 	hits[15] 	77043
scalar geant_cost_network.node[15].content_store 	misses[15] 	6
scalar geant_cost_network.node[15].content_store 	decision_yes[15] 	6
scalar geant_cost_network.node[15].content_store 	decision_no[15] 	0
scalar geant_cost_network.node[15].content_store 	decision_ratio[15] 	1
scalar geant_cost_network.node[16].core_layer 	interests[16] 	0
scalar geant_cost_network.node[16].core_layer 	data[16] 	0
scalar geant_cost_network.node[16].content_store 	p_hit[16] 	-nan
scalar geant_cost_network.node[16].content_store 	hits[16] 	0
scalar geant_cost_network.node[16].content_store 	misses[16] 	0
scalar geant_cost_network.node[16].content_store 	decision_yes[16] 	0
scalar geant_cost_network.node[16].content_store 	decision_no[16] 	0
scalar geant_cost_network.node[16].content_store 	decision_ratio[16] 	0
scalar geant_cost_network.node[17].core_layer 	interests[17] 	0
scalar geant_cost_network.node[17].core_layer 	data[17] 	0
scalar geant_cost_network.node[17].content_store 	p_hit[17] 	-nan
scalar geant_cost_network.node[17].content_store 	hits[17] 	0
scalar geant_cost_network.node[17].content_store 	misses[17] 	0
scalar geant_cost_network.node[17].content_store 	decision_yes[17] 	0
scalar geant_cost_network.node[17].content_store 	decision_no[17] 	0
scalar geant_cost_network.node[17].content_store 	decision_ratio[17] 	0
scalar geant_cost_network.node[18].core_layer 	interests[18] 	109303
scalar geant_cost_network.node[18].core_layer 	data[18] 	103364
scalar geant_cost_network.node[18].content_store 	p_hit[18] 	0.054353494414609
scalar geant_cost_network.node[18].content_store 	hits[18] 	5941
scalar geant_cost_network.node[18].content_store 	misses[18] 	103362
scalar geant_cost_network.node[18].content_store 	decision_yes[18] 	103364
scalar geant_cost_network.node[18].content_store 	decision_no[18] 	0
scalar geant_cost_network.node[18].content_store 	decision_ratio[18] 	1
scalar geant_cost_network.node[19].core_layer 	interests[19] 	0
scalar geant_cost_network.node[19].core_layer 	data[19] 	0
scalar geant_cost_network.node[19].content_store 	p_hit[19] 	-nan
scalar geant_cost_network.node[19].content_store 	hits[19] 	0
scalar geant_cost_network.node[19].content_store 	misses[19] 	0
scalar geant_cost_network.node[19].content_store 	decision_yes[19] 	0
scalar geant_cost_network.node[19].content_store 	decision_no[19] 	0
scalar geant_cost_network.node[19].content_store 	decision_ratio[19] 	0
scalar geant_cost_network.node[20].core_layer 	interests[20] 	180185
scalar geant_cost_network.node[20].core_layer 	data[20] 	140680
scalar geant_cost_network.node[20].content_store 	p_hit[20] 	0.21750978161334
scalar geant_cost_network.node[20].content_store 	hits[20] 	39192
scalar geant_cost_network.node[20].content_store 	misses[20] 	140993
scalar geant_cost_network.node[20].content_store 	decision_yes[20] 	140680
scalar geant_cost_network.node[20].content_store 	decision_no[20] 	0
scalar geant_cost_network.node[20].content_store 	decision_ratio[20] 	1
scalar geant_cost_network.node[21].core_layer 	interests[21] 	167358
scalar geant_cost_network.node[21].core_layer 	data[21] 	165734
scalar geant_cost_network.node[21].content_store 	p_hit[21] 	0.0097037488497711
scalar geant_cost_network.node[21].content_store 	hits[21] 	1624
scalar geant_cost_network.node[21].content_store 	misses[21] 	165734
scalar geant_cost_network.node[21].content_store 	decision_yes[21] 	165734
scalar geant_cost_network.node[21].content_store 	decision_no[21] 	0
scalar geant_cost_network.node[21].content_store 	decision_ratio[21] 	1
scalar geant_cost_network.node[22].core_layer 	interests[22] 	160217
scalar geant_cost_network.node[22].core_layer 	repo_load[22] 	160217
scalar geant_cost_network.node[22].core_layer 	data[22] 	0
scalar geant_cost_network.node[22].content_store 	p_hit[22] 	0
scalar geant_cost_network.node[22].content_store 	hits[22] 	0
scalar geant_cost_network.node[22].content_store 	misses[22] 	160217
scalar geant_cost_network.node[22].content_store 	decision_yes[22] 	0
scalar geant_cost_network.node[22].content_store 	decision_no[22] 	160217
scalar geant_cost_network.node[22].content_store 	decision_ratio[22] 	0
scalar geant_cost_network.node[23].core_layer 	interests[23] 	178852
scalar geant_cost_network.node[23].core_layer 	repo_load[23] 	178852
scalar geant_cost_network.node[23].core_layer 	data[23] 	0
scalar geant_cost_network.node[23].content_store 	p_hit[23] 	0
scalar geant_cost_network.node[23].content_store 	hits[23] 	0
scalar geant_cost_network.node[23].content_store 	misses[23] 	178852
scalar geant_cost_network.node[23].content_store 	decision_yes[23] 	0
scalar geant_cost_network.node[23].content_store 	decision_no[23] 	178852
scalar geant_cost_network.node[23].content_store 	decision_ratio[23] 	0
scalar geant_cost_network.node[24].core_layer 	interests[24] 	165734
scalar geant_cost_network.node[24].core_layer 	repo_load[24] 	165734
scalar geant_cost_network.node[24].core_layer 	data[24] 	0
scalar geant_cost_network.node[24].content_store 	p_hit[24] 	0
scalar geant_cost_network.node[24].content_store 	hits[24] 	0
scalar geant_cost_network.node[24].content_store 	misses[24] 	165734
scalar geant_cost_network.node[24].content_store 	decision_yes[24] 	0
scalar geant_cost_network.node[24].content_store 	decision_no[24] 	165734
scalar geant_cost_network.node[24].content_store 	decision_ratio[24] 	0
scalar geant_cost_network.client[5] 	hdistance[5] 	2.8188957055215
scalar geant_cost_network.client[5] 	downloads[5] 	179300
scalar geant_cost_network.client[5] 	avg_time[5] 	0.009978235259
scalar geant_cost_network.client[5] 	interests_sent[5] 	179729
scalar geant_cost_network.client[9] 	hdistance[9] 	2.841315932935
scalar geant_cost_network.client[9] 	downloads[9] 	179766
scalar geant_cost_network.client[9] 	avg_time[9] 	0.005962321388
scalar geant_cost_network.client[9] 	interests_sent[9] 	180046
scalar geant_cost_network.client[10] 	hdistance[10] 	3.5404163945676
scalar geant_cost_network.client[10] 	downloads[10] 	180694
scalar geant_cost_network.client[10] 	avg_time[10] 	0.007357018044
scalar geant_cost_network.client[10] 	interests_sent[10] 	180956
scalar geant_cost_network.client[12] 	hdistance[12] 	2.8601841517857
scalar geant_cost_network.client[12] 	downloads[12] 	179200
scalar geant_cost_network.client[12] 	avg_time[12] 	0.006866453307
scalar geant_cost_network.client[12] 	interests_sent[12] 	179746
scalar geant_cost_network.client[20] 	hdistance[20] 	3.2017011476349
scalar geant_cost_network.client[20] 	downloads[20] 	179761
scalar geant_cost_network.client[20] 	avg_time[20] 	0.007530449794
scalar geant_cost_network.client[20] 	interests_sent[20] 	180074
