version 2
run General-17-20140627-18:18:50-11372
attr D lce
attr F nrr
attr R lru
attr a 1
attr configname General
attr csize 1e3
attr ctlg 1e5
attr datetime 20140627-18:18:50
attr experiment General
attr inifile omnetpp.ini
attr iterationvars "$net=geant_cost, $rep=13, $priceratiovalue=10, $weights=0.333_0.333_0.334, $lambda=100, $a=1, $ctlg=1e5, $F=nrr, $ttl=1000, $D=lce, $xi=1, $R=lru, $csize=1e3, $pricebits=0, $window=60, $variance=0.05, $mytime=1800"
attr iterationvars2 "$net=geant_cost, $rep=13, $priceratiovalue=10, $weights=0.333_0.333_0.334, $lambda=100, $a=1, $ctlg=1e5, $F=nrr, $ttl=1000, $D=lce, $xi=1, $R=lru, $csize=1e3, $pricebits=0, $window=60, $variance=0.05, $mytime=1800, $repetition=0"
attr lambda 100
attr measurement "$net=geant_cost, $rep=13, $priceratiovalue=10, $weights=0.333_0.333_0.334, $lambda=100, $a=1, $ctlg=1e5, $F=nrr, $ttl=1000, $D=lce, $xi=1, $R=lru, $csize=1e3, $pricebits=0, $window=60, $variance=0.05, $mytime=1800"
attr mytime 1800
attr net geant_cost
attr network "networks.${net=geant_cost, abilene_cost}_network"
attr pricebits 0
attr priceratiovalue 10
attr processid 11372
attr rep 13
attr repetition 0
attr replication #0
attr resultdir results
attr runnumber 17
attr seedset 13
attr ttl 1000
attr variance 0.05
attr weights 0.333_0.333_0.334
attr window 60
attr xi 1

scalar . 	a 	1
scalar . 	csize 	1e3
scalar . 	ctlg 	1e5
scalar . 	lambda 	100
scalar . 	mytime 	1800
scalar . 	pricebits 	0
scalar . 	priceratiovalue 	10
scalar . 	rep 	13
scalar . 	ttl 	1000
scalar . 	variance 	0.05
scalar . 	window 	60
scalar . 	xi 	1
scalar geant_cost_network.content_distribution 	repo-0 	22
scalar geant_cost_network.content_distribution 	repo-1 	23
scalar geant_cost_network.content_distribution 	repo-2 	24
scalar geant_cost_network.content_distribution 	client-0 	20
scalar geant_cost_network.content_distribution 	client-1 	10
scalar geant_cost_network.content_distribution 	client-2 	12
scalar geant_cost_network.content_distribution 	client-3 	9
scalar geant_cost_network.content_distribution 	client-4 	5
scalar geant_cost_network.content_distribution 	repo-0_card 	33150
scalar geant_cost_network.content_distribution 	repo-1_card 	33483
scalar geant_cost_network.content_distribution 	repo-2_card 	33367
scalar geant_cost_network.statistics 	repo_popularity[0] 	0.32452364638376
scalar geant_cost_network.statistics 	repo_popularity[1] 	0.39627169592308
scalar geant_cost_network.statistics 	repo_popularity[2] 	0.27920465769315
scalar geant_cost_network.statistics 	stabilization_time 	36060
scalar geant_cost_network.node[7].face$o[4].channel 	price[7] 	0
scalar geant_cost_network.node[7].face$o[4].channel 	represented_price[7] 	0
scalar geant_cost_network.node[8].face$o[3].channel 	price[8] 	0
scalar geant_cost_network.node[8].face$o[3].channel 	represented_price[8] 	0
scalar geant_cost_network.node[21].face$o[5].channel 	price[21] 	0
scalar geant_cost_network.node[21].face$o[5].channel 	represented_price[21] 	0
scalar geant_cost_network.node[22].face$o[1].channel 	price[22] 	0
scalar geant_cost_network.node[22].face$o[1].channel 	represented_price[22] 	0
scalar geant_cost_network.node[23].face$o[1].channel 	price[23] 	1
scalar geant_cost_network.node[23].face$o[1].channel 	represented_price[23] 	1
scalar geant_cost_network.node[24].face$o[1].channel 	price[24] 	10
scalar geant_cost_network.node[24].face$o[1].channel 	represented_price[24] 	10
scalar geant_cost_network.statistics 	p_hit 	0.12506032158542
scalar geant_cost_network.statistics 	interests 	125411.16
scalar geant_cost_network.statistics 	data 	89418.72
scalar geant_cost_network.statistics 	hdistance 	3.0528170346244
scalar geant_cost_network.statistics 	avg_time 	0.007611686865
scalar geant_cost_network.statistics 	downloads 	898176
scalar geant_cost_network.statistics 	total_cost 	1783156
scalar geant_cost_network.statistics 	total_replicas 	100000
scalar geant_cost_network.statistics 	inner_hit 	0.43811680561494
scalar geant_cost_network.statistics 	interests_sent 	899817
scalar geant_cost_network.node[0].core_layer 	interests[0] 	0
scalar geant_cost_network.node[0].core_layer 	data[0] 	0
scalar geant_cost_network.node[0].core_layer 	repo_int[0] 	504670
scalar geant_cost_network.node[0].content_store 	p_hit[0] 	-nan
scalar geant_cost_network.node[0].content_store 	hits[0] 	0
scalar geant_cost_network.node[0].content_store 	misses[0] 	0
scalar geant_cost_network.node[0].content_store 	decision_yes[0] 	0
scalar geant_cost_network.node[0].content_store 	decision_no[0] 	0
scalar geant_cost_network.node[0].content_store 	decision_ratio[0] 	0
scalar geant_cost_network.node[1].core_layer 	interests[1] 	0
scalar geant_cost_network.node[1].core_layer 	data[1] 	0
scalar geant_cost_network.node[1].content_store 	p_hit[1] 	-nan
scalar geant_cost_network.node[1].content_store 	hits[1] 	0
scalar geant_cost_network.node[1].content_store 	misses[1] 	0
scalar geant_cost_network.node[1].content_store 	decision_yes[1] 	0
scalar geant_cost_network.node[1].content_store 	decision_no[1] 	0
scalar geant_cost_network.node[1].content_store 	decision_ratio[1] 	0
scalar geant_cost_network.node[2].core_layer 	interests[2] 	0
scalar geant_cost_network.node[2].core_layer 	data[2] 	0
scalar geant_cost_network.node[2].content_store 	p_hit[2] 	-nan
scalar geant_cost_network.node[2].content_store 	hits[2] 	0
scalar geant_cost_network.node[2].content_store 	misses[2] 	0
scalar geant_cost_network.node[2].content_store 	decision_yes[2] 	0
scalar geant_cost_network.node[2].content_store 	decision_no[2] 	0
scalar geant_cost_network.node[2].content_store 	decision_ratio[2] 	0
scalar geant_cost_network.node[3].core_layer 	interests[3] 	142350
scalar geant_cost_network.node[3].core_layer 	data[3] 	138405
scalar geant_cost_network.node[3].content_store 	p_hit[3] 	0.027713382507903
scalar geant_cost_network.node[3].content_store 	hits[3] 	3945
scalar geant_cost_network.node[3].content_store 	misses[3] 	138405
scalar geant_cost_network.node[3].content_store 	decision_yes[3] 	138387
scalar geant_cost_network.node[3].content_store 	decision_no[3] 	0
scalar geant_cost_network.node[3].content_store 	decision_ratio[3] 	1
scalar geant_cost_network.node[4].core_layer 	interests[4] 	216085
scalar geant_cost_network.node[4].core_layer 	data[4] 	214803
scalar geant_cost_network.node[4].content_store 	p_hit[4] 	0.0059328504986464
scalar geant_cost_network.node[4].content_store 	hits[4] 	1282
scalar geant_cost_network.node[4].content_store 	misses[4] 	214803
scalar geant_cost_network.node[4].content_store 	decision_yes[4] 	214783
scalar geant_cost_network.node[4].content_store 	decision_no[4] 	0
scalar geant_cost_network.node[4].content_store 	decision_ratio[4] 	1
scalar geant_cost_network.node[5].core_layer 	interests[5] 	183631
scalar geant_cost_network.node[5].core_layer 	data[5] 	142351
scalar geant_cost_network.node[5].content_store 	p_hit[5] 	0.22258768944241
scalar geant_cost_network.node[5].content_store 	hits[5] 	40874
scalar geant_cost_network.node[5].content_store 	misses[5] 	142757
scalar geant_cost_network.node[5].content_store 	decision_yes[5] 	142351
scalar geant_cost_network.node[5].content_store 	decision_no[5] 	0
scalar geant_cost_network.node[5].content_store 	decision_ratio[5] 	1
scalar geant_cost_network.node[6].core_layer 	interests[6] 	73272
scalar geant_cost_network.node[6].core_layer 	data[6] 	69810
scalar geant_cost_network.node[6].content_store 	p_hit[6] 	0.04724860792663
scalar geant_cost_network.node[6].content_store 	hits[6] 	3462
scalar geant_cost_network.node[6].content_store 	misses[6] 	69810
scalar geant_cost_network.node[6].content_store 	decision_yes[6] 	69810
scalar geant_cost_network.node[6].content_store 	decision_no[6] 	0
scalar geant_cost_network.node[6].content_store 	decision_ratio[6] 	1
scalar geant_cost_network.node[7].core_layer 	interests[7] 	244274
scalar geant_cost_network.node[7].core_layer 	data[7] 	242443
scalar geant_cost_network.node[7].content_store 	p_hit[7] 	0.0074793060252012
scalar geant_cost_network.node[7].content_store 	hits[7] 	1827
scalar geant_cost_network.node[7].content_store 	misses[7] 	242447
scalar geant_cost_network.node[7].content_store 	decision_yes[7] 	242432
scalar geant_cost_network.node[7].content_store 	decision_no[7] 	0
scalar geant_cost_network.node[7].content_store 	decision_ratio[7] 	1
scalar geant_cost_network.node[8].core_layer 	interests[8] 	244969
scalar geant_cost_network.node[8].core_layer 	data[8] 	243117
scalar geant_cost_network.node[8].content_store 	p_hit[8] 	0.0075601402626455
scalar geant_cost_network.node[8].content_store 	hits[8] 	1852
scalar geant_cost_network.node[8].content_store 	misses[8] 	243117
scalar geant_cost_network.node[8].content_store 	decision_yes[8] 	243113
scalar geant_cost_network.node[8].content_store 	decision_no[8] 	0
scalar geant_cost_network.node[8].content_store 	decision_ratio[8] 	1
scalar geant_cost_network.node[9].core_layer 	interests[9] 	356863
scalar geant_cost_network.node[9].core_layer 	data[9] 	315336
scalar geant_cost_network.node[9].content_store 	p_hit[9] 	0.11432118207828
scalar geant_cost_network.node[9].content_store 	hits[9] 	40797
scalar geant_cost_network.node[9].content_store 	misses[9] 	316066
scalar geant_cost_network.node[9].content_store 	decision_yes[9] 	315296
scalar geant_cost_network.node[9].content_store 	decision_no[9] 	0
scalar geant_cost_network.node[9].content_store 	decision_ratio[9] 	1
scalar geant_cost_network.node[10].core_layer 	interests[10] 	190021
scalar geant_cost_network.node[10].core_layer 	data[10] 	138585
scalar geant_cost_network.node[10].content_store 	p_hit[10] 	0.26919129990896
scalar geant_cost_network.node[10].content_store 	hits[10] 	51152
scalar geant_cost_network.node[10].content_store 	misses[10] 	138869
scalar geant_cost_network.node[10].content_store 	decision_yes[10] 	138585
scalar geant_cost_network.node[10].content_store 	decision_no[10] 	0
scalar geant_cost_network.node[10].content_store 	decision_ratio[10] 	1
scalar geant_cost_network.node[11].core_layer 	interests[11] 	0
scalar geant_cost_network.node[11].core_layer 	data[11] 	0
scalar geant_cost_network.node[11].content_store 	p_hit[11] 	-nan
scalar geant_cost_network.node[11].content_store 	hits[11] 	0
scalar geant_cost_network.node[11].content_store 	misses[11] 	0
scalar geant_cost_network.node[11].content_store 	decision_yes[11] 	0
scalar geant_cost_network.node[11].content_store 	decision_no[11] 	0
scalar geant_cost_network.node[11].content_store 	decision_ratio[11] 	0
scalar geant_cost_network.node[12].core_layer 	interests[12] 	313166
scalar geant_cost_network.node[12].core_layer 	data[12] 	258475
scalar geant_cost_network.node[12].content_store 	p_hit[12] 	0.17074650504844
scalar geant_cost_network.node[12].content_store 	hits[12] 	53472
scalar geant_cost_network.node[12].content_store 	misses[12] 	259694
scalar geant_cost_network.node[12].content_store 	decision_yes[12] 	258473
scalar geant_cost_network.node[12].content_store 	decision_no[12] 	0
scalar geant_cost_network.node[12].content_store 	decision_ratio[12] 	1
scalar geant_cost_network.node[13].core_layer 	interests[13] 	51262
scalar geant_cost_network.node[13].core_layer 	data[13] 	974
scalar geant_cost_network.node[13].content_store 	p_hit[13] 	0.9809995708322
scalar geant_cost_network.node[13].content_store 	hits[13] 	50288
scalar geant_cost_network.node[13].content_store 	misses[13] 	974
scalar geant_cost_network.node[13].content_store 	decision_yes[13] 	974
scalar geant_cost_network.node[13].content_store 	decision_no[13] 	0
scalar geant_cost_network.node[13].content_store 	decision_ratio[13] 	1
scalar geant_cost_network.node[14].core_layer 	interests[14] 	87527
scalar geant_cost_network.node[14].core_layer 	data[14] 	65200
scalar geant_cost_network.node[14].content_store 	p_hit[14] 	0.25339609491928
scalar geant_cost_network.node[14].content_store 	hits[14] 	22179
scalar geant_cost_network.node[14].content_store 	misses[14] 	65348
scalar geant_cost_network.node[14].content_store 	decision_yes[14] 	65199
scalar geant_cost_network.node[14].content_store 	decision_no[14] 	0
scalar geant_cost_network.node[14].content_store 	decision_ratio[14] 	1
scalar geant_cost_network.node[15].core_layer 	interests[15] 	73970
scalar geant_cost_network.node[15].core_layer 	data[15] 	9
scalar geant_cost_network.node[15].content_store 	p_hit[15] 	0.99987832905232
scalar geant_cost_network.node[15].content_store 	hits[15] 	73961
scalar geant_cost_network.node[15].content_store 	misses[15] 	9
scalar geant_cost_network.node[15].content_store 	decision_yes[15] 	9
scalar geant_cost_network.node[15].content_store 	decision_no[15] 	0
scalar geant_cost_network.node[15].content_store 	decision_ratio[15] 	1
scalar geant_cost_network.node[16].core_layer 	interests[16] 	0
scalar geant_cost_network.node[16].core_layer 	data[16] 	0
scalar geant_cost_network.node[16].content_store 	p_hit[16] 	-nan
scalar geant_cost_network.node[16].content_store 	hits[16] 	0
scalar geant_cost_network.node[16].content_store 	misses[16] 	0
scalar geant_cost_network.node[16].content_store 	decision_yes[16] 	0
scalar geant_cost_network.node[16].content_store 	decision_no[16] 	0
scalar geant_cost_network.node[16].content_store 	decision_ratio[16] 	0
scalar geant_cost_network.node[17].core_layer 	interests[17] 	0
scalar geant_cost_network.node[17].core_layer 	data[17] 	0
scalar geant_cost_network.node[17].content_store 	p_hit[17] 	-nan
scalar geant_cost_network.node[17].content_store 	hits[17] 	0
scalar geant_cost_network.node[17].content_store 	misses[17] 	0
scalar geant_cost_network.node[17].content_store 	decision_yes[17] 	0
scalar geant_cost_network.node[17].content_store 	decision_no[17] 	0
scalar geant_cost_network.node[17].content_store 	decision_ratio[17] 	0
scalar geant_cost_network.node[18].core_layer 	interests[18] 	110305
scalar geant_cost_network.node[18].core_layer 	data[18] 	104447
scalar geant_cost_network.node[18].content_store 	p_hit[18] 	0.053116359185894
scalar geant_cost_network.node[18].content_store 	hits[18] 	5859
scalar geant_cost_network.node[18].content_store 	misses[18] 	104446
scalar geant_cost_network.node[18].content_store 	decision_yes[18] 	104446
scalar geant_cost_network.node[18].content_store 	decision_no[18] 	0
scalar geant_cost_network.node[18].content_store 	decision_ratio[18] 	1
scalar geant_cost_network.node[19].core_layer 	interests[19] 	0
scalar geant_cost_network.node[19].core_layer 	data[19] 	0
scalar geant_cost_network.node[19].content_store 	p_hit[19] 	-nan
scalar geant_cost_network.node[19].content_store 	hits[19] 	0
scalar geant_cost_network.node[19].content_store 	misses[19] 	0
scalar geant_cost_network.node[19].content_store 	decision_yes[19] 	0
scalar geant_cost_network.node[19].content_store 	decision_no[19] 	0
scalar geant_cost_network.node[19].content_store 	decision_ratio[19] 	0
scalar geant_cost_network.node[20].core_layer 	interests[20] 	180363
scalar geant_cost_network.node[20].core_layer 	data[20] 	140453
scalar geant_cost_network.node[20].content_store 	p_hit[20] 	0.2198787999756
scalar geant_cost_network.node[20].content_store 	hits[20] 	39658
scalar geant_cost_network.node[20].content_store 	misses[20] 	140705
scalar geant_cost_network.node[20].content_store 	decision_yes[20] 	140453
scalar geant_cost_network.node[20].content_store 	decision_no[20] 	0
scalar geant_cost_network.node[20].content_store 	decision_ratio[20] 	1
scalar geant_cost_network.node[21].core_layer 	interests[21] 	162551
scalar geant_cost_network.node[21].core_layer 	data[21] 	161060
scalar geant_cost_network.node[21].content_store 	p_hit[21] 	0.0091725058596994
scalar geant_cost_network.node[21].content_store 	hits[21] 	1491
scalar geant_cost_network.node[21].content_store 	misses[21] 	161060
scalar geant_cost_network.node[21].content_store 	decision_yes[21] 	161060
scalar geant_cost_network.node[21].content_store 	decision_no[21] 	0
scalar geant_cost_network.node[21].content_store 	decision_ratio[21] 	1
scalar geant_cost_network.node[22].core_layer 	interests[22] 	171054
scalar geant_cost_network.node[22].core_layer 	repo_load[22] 	171054
scalar geant_cost_network.node[22].core_layer 	data[22] 	0
scalar geant_cost_network.node[22].content_store 	p_hit[22] 	0
scalar geant_cost_network.node[22].content_store 	hits[22] 	0
scalar geant_cost_network.node[22].content_store 	misses[22] 	171054
scalar geant_cost_network.node[22].content_store 	decision_yes[22] 	0
scalar geant_cost_network.node[22].content_store 	decision_no[22] 	171054
scalar geant_cost_network.node[22].content_store 	decision_ratio[22] 	0
scalar geant_cost_network.node[23].core_layer 	interests[23] 	172556
scalar geant_cost_network.node[23].core_layer 	repo_load[23] 	172556
scalar geant_cost_network.node[23].core_layer 	data[23] 	0
scalar geant_cost_network.node[23].content_store 	p_hit[23] 	0
scalar geant_cost_network.node[23].content_store 	hits[23] 	0
scalar geant_cost_network.node[23].content_store 	misses[23] 	172556
scalar geant_cost_network.node[23].content_store 	decision_yes[23] 	0
scalar geant_cost_network.node[23].content_store 	decision_no[23] 	172556
scalar geant_cost_network.node[23].content_store 	decision_ratio[23] 	0
scalar geant_cost_network.node[24].core_layer 	interests[24] 	161060
scalar geant_cost_network.node[24].core_layer 	repo_load[24] 	161060
scalar geant_cost_network.node[24].core_layer 	data[24] 	0
scalar geant_cost_network.node[24].content_store 	p_hit[24] 	0
scalar geant_cost_network.node[24].content_store 	hits[24] 	0
scalar geant_cost_network.node[24].content_store 	misses[24] 	161060
scalar geant_cost_network.node[24].content_store 	decision_yes[24] 	0
scalar geant_cost_network.node[24].content_store 	decision_no[24] 	161060
scalar geant_cost_network.node[24].content_store 	decision_ratio[24] 	0
scalar geant_cost_network.client[5] 	hdistance[5] 	2.8279922790662
scalar geant_cost_network.client[5] 	downloads[5] 	179771
scalar geant_cost_network.client[5] 	avg_time[5] 	0.010002621518
scalar geant_cost_network.client[5] 	interests_sent[5] 	180177
scalar geant_cost_network.client[9] 	hdistance[9] 	2.8383954154728
scalar geant_cost_network.client[9] 	downloads[9] 	179735
scalar geant_cost_network.client[9] 	avg_time[9] 	0.006063676856
scalar geant_cost_network.client[9] 	interests_sent[9] 	180004
scalar geant_cost_network.client[10] 	hdistance[10] 	3.533432938999
scalar geant_cost_network.client[10] 	downloads[10] 	179374
scalar geant_cost_network.client[10] 	avg_time[10] 	0.007455872065
scalar geant_cost_network.client[10] 	interests_sent[10] 	179658
scalar geant_cost_network.client[12] 	hdistance[12] 	2.868085035171
scalar geant_cost_network.client[12] 	downloads[12] 	179267
scalar geant_cost_network.client[12] 	avg_time[12] 	0.00692021178
scalar geant_cost_network.client[12] 	interests_sent[12] 	179697
scalar geant_cost_network.client[20] 	hdistance[20] 	3.1961795044132
scalar geant_cost_network.client[20] 	downloads[20] 	180029
scalar geant_cost_network.client[20] 	avg_time[20] 	0.00761605211
scalar geant_cost_network.client[20] 	interests_sent[20] 	180281
