version 2
run General-1-20140626-16:20:36-10609
attr D lce
attr F nrr
attr R lru
attr a 1
attr configname General
attr csize 1e3
attr ctlg 1e5
attr datetime 20140626-16:20:36
attr experiment General
attr inifile omnetpp.ini
attr iterationvars "$net=geant_cost, $rep=4, $priceratiovalue=10, $weights=0.333_0.333_0.334, $lambda=100, $a=1, $ctlg=1e5, $F=nrr, $ttl=1000, $D=lce, $xi=1, $R=lru, $csize=1e3, $pricebits=0, $mytime=1800"
attr iterationvars2 "$net=geant_cost, $rep=4, $priceratiovalue=10, $weights=0.333_0.333_0.334, $lambda=100, $a=1, $ctlg=1e5, $F=nrr, $ttl=1000, $D=lce, $xi=1, $R=lru, $csize=1e3, $pricebits=0, $mytime=1800, $repetition=0"
attr lambda 100
attr measurement "$net=geant_cost, $rep=4, $priceratiovalue=10, $weights=0.333_0.333_0.334, $lambda=100, $a=1, $ctlg=1e5, $F=nrr, $ttl=1000, $D=lce, $xi=1, $R=lru, $csize=1e3, $pricebits=0, $mytime=1800"
attr mytime 1800
attr net geant_cost
attr network "networks.${net=geant_cost, abilene_cost}_network"
attr pricebits 0
attr priceratiovalue 10
attr processid 10609
attr rep 4
attr repetition 0
attr replication #0
attr resultdir results
attr runnumber 1
attr seedset 4
attr ttl 1000
attr weights 0.333_0.333_0.334
attr xi 1

scalar . 	a 	1
scalar . 	csize 	1e3
scalar . 	ctlg 	1e5
scalar . 	lambda 	100
scalar . 	mytime 	1800
scalar . 	pricebits 	0
scalar . 	priceratiovalue 	10
scalar . 	rep 	4
scalar . 	ttl 	1000
scalar . 	xi 	1
scalar geant_cost_network.content_distribution 	repo-0 	22
scalar geant_cost_network.content_distribution 	repo-1 	23
scalar geant_cost_network.content_distribution 	repo-2 	24
scalar geant_cost_network.content_distribution 	client-0 	20
scalar geant_cost_network.content_distribution 	client-1 	10
scalar geant_cost_network.content_distribution 	client-2 	12
scalar geant_cost_network.content_distribution 	client-3 	9
scalar geant_cost_network.content_distribution 	client-4 	5
scalar geant_cost_network.content_distribution 	repo-0_card 	33272
scalar geant_cost_network.content_distribution 	repo-1_card 	33152
scalar geant_cost_network.content_distribution 	repo-2_card 	33576
scalar geant_cost_network.statistics 	repo_popularity[0] 	0.28234107170654
scalar geant_cost_network.statistics 	repo_popularity[1] 	0.30413978820018
scalar geant_cost_network.statistics 	repo_popularity[2] 	0.41351914009327
scalar geant_cost_network.statistics 	stabilization_time 	36060
scalar geant_cost_network.node[7].face$o[4].channel 	price[7] 	0
scalar geant_cost_network.node[7].face$o[4].channel 	represented_price[7] 	0
scalar geant_cost_network.node[8].face$o[3].channel 	price[8] 	0
scalar geant_cost_network.node[8].face$o[3].channel 	represented_price[8] 	0
scalar geant_cost_network.node[21].face$o[5].channel 	price[21] 	0
scalar geant_cost_network.node[21].face$o[5].channel 	represented_price[21] 	0
scalar geant_cost_network.node[22].face$o[1].channel 	price[22] 	0
scalar geant_cost_network.node[22].face$o[1].channel 	represented_price[22] 	0
scalar geant_cost_network.node[23].face$o[1].channel 	price[23] 	1
scalar geant_cost_network.node[23].face$o[1].channel 	represented_price[23] 	1
scalar geant_cost_network.node[24].face$o[1].channel 	price[24] 	10
scalar geant_cost_network.node[24].face$o[1].channel 	represented_price[24] 	10
scalar geant_cost_network.statistics 	p_hit 	0.12485087498366
scalar geant_cost_network.statistics 	interests 	125465.2
scalar geant_cost_network.statistics 	data 	89481.16
scalar geant_cost_network.statistics 	hdistance 	3.0575039598318
scalar geant_cost_network.statistics 	avg_time 	0.00791667911
scalar geant_cost_network.statistics 	downloads 	897358
scalar geant_cost_network.statistics 	total_cost 	1810054
scalar geant_cost_network.statistics 	total_replicas 	100000
scalar geant_cost_network.statistics 	inner_hit 	0.43875688409754
scalar geant_cost_network.statistics 	interests_sent 	899598
scalar geant_cost_network.node[0].core_layer 	interests[0] 	0
scalar geant_cost_network.node[0].core_layer 	data[0] 	0
scalar geant_cost_network.node[0].core_layer 	repo_int[0] 	503636
scalar geant_cost_network.node[0].content_store 	p_hit[0] 	-nan
scalar geant_cost_network.node[0].content_store 	hits[0] 	0
scalar geant_cost_network.node[0].content_store 	misses[0] 	0
scalar geant_cost_network.node[0].content_store 	decision_yes[0] 	0
scalar geant_cost_network.node[0].content_store 	decision_no[0] 	0
scalar geant_cost_network.node[0].content_store 	decision_ratio[0] 	0
scalar geant_cost_network.node[1].core_layer 	interests[1] 	0
scalar geant_cost_network.node[1].core_layer 	data[1] 	0
scalar geant_cost_network.node[1].content_store 	p_hit[1] 	-nan
scalar geant_cost_network.node[1].content_store 	hits[1] 	0
scalar geant_cost_network.node[1].content_store 	misses[1] 	0
scalar geant_cost_network.node[1].content_store 	decision_yes[1] 	0
scalar geant_cost_network.node[1].content_store 	decision_no[1] 	0
scalar geant_cost_network.node[1].content_store 	decision_ratio[1] 	0
scalar geant_cost_network.node[2].core_layer 	interests[2] 	0
scalar geant_cost_network.node[2].core_layer 	data[2] 	0
scalar geant_cost_network.node[2].content_store 	p_hit[2] 	-nan
scalar geant_cost_network.node[2].content_store 	hits[2] 	0
scalar geant_cost_network.node[2].content_store 	misses[2] 	0
scalar geant_cost_network.node[2].content_store 	decision_yes[2] 	0
scalar geant_cost_network.node[2].content_store 	decision_no[2] 	0
scalar geant_cost_network.node[2].content_store 	decision_ratio[2] 	0
scalar geant_cost_network.node[3].core_layer 	interests[3] 	145503
scalar geant_cost_network.node[3].core_layer 	data[3] 	141786
scalar geant_cost_network.node[3].content_store 	p_hit[3] 	0.025545865033711
scalar geant_cost_network.node[3].content_store 	hits[3] 	3717
scalar geant_cost_network.node[3].content_store 	misses[3] 	141786
scalar geant_cost_network.node[3].content_store 	decision_yes[3] 	141770
scalar geant_cost_network.node[3].content_store 	decision_no[3] 	0
scalar geant_cost_network.node[3].content_store 	decision_ratio[3] 	1
scalar geant_cost_network.node[4].core_layer 	interests[4] 	218643
scalar geant_cost_network.node[4].core_layer 	data[4] 	217535
scalar geant_cost_network.node[4].content_store 	p_hit[4] 	0.00505847431658
scalar geant_cost_network.node[4].content_store 	hits[4] 	1106
scalar geant_cost_network.node[4].content_store 	misses[4] 	217537
scalar geant_cost_network.node[4].content_store 	decision_yes[4] 	217523
scalar geant_cost_network.node[4].content_store 	decision_no[4] 	0
scalar geant_cost_network.node[4].content_store 	decision_ratio[4] 	1
scalar geant_cost_network.node[5].core_layer 	interests[5] 	183670
scalar geant_cost_network.node[5].core_layer 	data[5] 	141920
scalar geant_cost_network.node[5].content_store 	p_hit[5] 	0.22497958294768
scalar geant_cost_network.node[5].content_store 	hits[5] 	41322
scalar geant_cost_network.node[5].content_store 	misses[5] 	142348
scalar geant_cost_network.node[5].content_store 	decision_yes[5] 	141919
scalar geant_cost_network.node[5].content_store 	decision_no[5] 	0
scalar geant_cost_network.node[5].content_store 	decision_ratio[5] 	1
scalar geant_cost_network.node[6].core_layer 	interests[6] 	71412
scalar geant_cost_network.node[6].core_layer 	data[6] 	68104
scalar geant_cost_network.node[6].content_store 	p_hit[6] 	0.046322746877276
scalar geant_cost_network.node[6].content_store 	hits[6] 	3308
scalar geant_cost_network.node[6].content_store 	misses[6] 	68104
scalar geant_cost_network.node[6].content_store 	decision_yes[6] 	68104
scalar geant_cost_network.node[6].content_store 	decision_no[6] 	0
scalar geant_cost_network.node[6].content_store 	decision_ratio[6] 	1
scalar geant_cost_network.node[7].core_layer 	interests[7] 	245827
scalar geant_cost_network.node[7].core_layer 	data[7] 	244034
scalar geant_cost_network.node[7].content_store 	p_hit[7] 	0.0072896793273318
scalar geant_cost_network.node[7].content_store 	hits[7] 	1792
scalar geant_cost_network.node[7].content_store 	misses[7] 	244035
scalar geant_cost_network.node[7].content_store 	decision_yes[7] 	244015
scalar geant_cost_network.node[7].content_store 	decision_no[7] 	0
scalar geant_cost_network.node[7].content_store 	decision_ratio[7] 	1
scalar geant_cost_network.node[8].core_layer 	interests[8] 	236014
scalar geant_cost_network.node[8].core_layer 	data[8] 	234298
scalar geant_cost_network.node[8].content_store 	p_hit[8] 	0.00726651808791
scalar geant_cost_network.node[8].content_store 	hits[8] 	1715
scalar geant_cost_network.node[8].content_store 	misses[8] 	234299
scalar geant_cost_network.node[8].content_store 	decision_yes[8] 	234292
scalar geant_cost_network.node[8].content_store 	decision_no[8] 	0
scalar geant_cost_network.node[8].content_store 	decision_ratio[8] 	1
scalar geant_cost_network.node[9].core_layer 	interests[9] 	355288
scalar geant_cost_network.node[9].core_layer 	data[9] 	313538
scalar geant_cost_network.node[9].content_store 	p_hit[9] 	0.11454087951183
scalar geant_cost_network.node[9].content_store 	hits[9] 	40695
scalar geant_cost_network.node[9].content_store 	misses[9] 	314593
scalar geant_cost_network.node[9].content_store 	decision_yes[9] 	313503
scalar geant_cost_network.node[9].content_store 	decision_no[9] 	0
scalar geant_cost_network.node[9].content_store 	decision_ratio[9] 	1
scalar geant_cost_network.node[10].core_layer 	interests[10] 	189946
scalar geant_cost_network.node[10].core_layer 	data[10] 	138579
scalar geant_cost_network.node[10].content_store 	p_hit[10] 	0.26831836416666
scalar geant_cost_network.node[10].content_store 	hits[10] 	50966
scalar geant_cost_network.node[10].content_store 	misses[10] 	138980
scalar geant_cost_network.node[10].content_store 	decision_yes[10] 	138579
scalar geant_cost_network.node[10].content_store 	decision_no[10] 	0
scalar geant_cost_network.node[10].content_store 	decision_ratio[10] 	1
scalar geant_cost_network.node[11].core_layer 	interests[11] 	0
scalar geant_cost_network.node[11].core_layer 	data[11] 	0
scalar geant_cost_network.node[11].content_store 	p_hit[11] 	-nan
scalar geant_cost_network.node[11].content_store 	hits[11] 	0
scalar geant_cost_network.node[11].content_store 	misses[11] 	0
scalar geant_cost_network.node[11].content_store 	decision_yes[11] 	0
scalar geant_cost_network.node[11].content_store 	decision_no[11] 	0
scalar geant_cost_network.node[11].content_store 	decision_ratio[11] 	0
scalar geant_cost_network.node[12].core_layer 	interests[12] 	315823
scalar geant_cost_network.node[12].core_layer 	data[12] 	261043
scalar geant_cost_network.node[12].content_store 	p_hit[12] 	0.1674988838685
scalar geant_cost_network.node[12].content_store 	hits[12] 	52900
scalar geant_cost_network.node[12].content_store 	misses[12] 	262923
scalar geant_cost_network.node[12].content_store 	decision_yes[12] 	261038
scalar geant_cost_network.node[12].content_store 	decision_no[12] 	0
scalar geant_cost_network.node[12].content_store 	decision_ratio[12] 	1
scalar geant_cost_network.node[13].core_layer 	interests[13] 	56900
scalar geant_cost_network.node[13].core_layer 	data[13] 	1032
scalar geant_cost_network.node[13].content_store 	p_hit[13] 	0.98186291739895
scalar geant_cost_network.node[13].content_store 	hits[13] 	55868
scalar geant_cost_network.node[13].content_store 	misses[13] 	1032
scalar geant_cost_network.node[13].content_store 	decision_yes[13] 	1032
scalar geant_cost_network.node[13].content_store 	decision_no[13] 	0
scalar geant_cost_network.node[13].content_store 	decision_ratio[13] 	1
scalar geant_cost_network.node[14].core_layer 	interests[14] 	89581
scalar geant_cost_network.node[14].core_layer 	data[14] 	66500
scalar geant_cost_network.node[14].content_store 	p_hit[14] 	0.2550429220482
scalar geant_cost_network.node[14].content_store 	hits[14] 	22847
scalar geant_cost_network.node[14].content_store 	misses[14] 	66734
scalar geant_cost_network.node[14].content_store 	decision_yes[14] 	66494
scalar geant_cost_network.node[14].content_store 	decision_no[14] 	0
scalar geant_cost_network.node[14].content_store 	decision_ratio[14] 	1
scalar geant_cost_network.node[15].core_layer 	interests[15] 	68957
scalar geant_cost_network.node[15].core_layer 	data[15] 	12
scalar geant_cost_network.node[15].content_store 	p_hit[15] 	0.99982597850835
scalar geant_cost_network.node[15].content_store 	hits[15] 	68945
scalar geant_cost_network.node[15].content_store 	misses[15] 	12
scalar geant_cost_network.node[15].content_store 	decision_yes[15] 	12
scalar geant_cost_network.node[15].content_store 	decision_no[15] 	0
scalar geant_cost_network.node[15].content_store 	decision_ratio[15] 	1
scalar geant_cost_network.node[16].core_layer 	interests[16] 	0
scalar geant_cost_network.node[16].core_layer 	data[16] 	0
scalar geant_cost_network.node[16].content_store 	p_hit[16] 	-nan
scalar geant_cost_network.node[16].content_store 	hits[16] 	0
scalar geant_cost_network.node[16].content_store 	misses[16] 	0
scalar geant_cost_network.node[16].content_store 	decision_yes[16] 	0
scalar geant_cost_network.node[16].content_store 	decision_no[16] 	0
scalar geant_cost_network.node[16].content_store 	decision_ratio[16] 	0
scalar geant_cost_network.node[17].core_layer 	interests[17] 	0
scalar geant_cost_network.node[17].core_layer 	data[17] 	0
scalar geant_cost_network.node[17].content_store 	p_hit[17] 	-nan
scalar geant_cost_network.node[17].content_store 	hits[17] 	0
scalar geant_cost_network.node[17].content_store 	misses[17] 	0
scalar geant_cost_network.node[17].content_store 	decision_yes[17] 	0
scalar geant_cost_network.node[17].content_store 	decision_no[17] 	0
scalar geant_cost_network.node[17].content_store 	decision_ratio[17] 	0
scalar geant_cost_network.node[18].core_layer 	interests[18] 	109364
scalar geant_cost_network.node[18].core_layer 	data[18] 	103647
scalar geant_cost_network.node[18].content_store 	p_hit[18] 	0.052274971654292
scalar geant_cost_network.node[18].content_store 	hits[18] 	5717
scalar geant_cost_network.node[18].content_store 	misses[18] 	103647
scalar geant_cost_network.node[18].content_store 	decision_yes[18] 	103647
scalar geant_cost_network.node[18].content_store 	decision_no[18] 	0
scalar geant_cost_network.node[18].content_store 	decision_ratio[18] 	1
scalar geant_cost_network.node[19].core_layer 	interests[19] 	0
scalar geant_cost_network.node[19].core_layer 	data[19] 	0
scalar geant_cost_network.node[19].content_store 	p_hit[19] 	-nan
scalar geant_cost_network.node[19].content_store 	hits[19] 	0
scalar geant_cost_network.node[19].content_store 	misses[19] 	0
scalar geant_cost_network.node[19].content_store 	decision_yes[19] 	0
scalar geant_cost_network.node[19].content_store 	decision_no[19] 	0
scalar geant_cost_network.node[19].content_store 	decision_ratio[19] 	0
scalar geant_cost_network.node[20].core_layer 	interests[20] 	179713
scalar geant_cost_network.node[20].core_layer 	data[20] 	140124
scalar geant_cost_network.node[20].content_store 	p_hit[20] 	0.21833145070195
scalar geant_cost_network.node[20].content_store 	hits[20] 	39237
scalar geant_cost_network.node[20].content_store 	misses[20] 	140476
scalar geant_cost_network.node[20].content_store 	decision_yes[20] 	140124
scalar geant_cost_network.node[20].content_store 	decision_no[20] 	0
scalar geant_cost_network.node[20].content_store 	decision_ratio[20] 	1
scalar geant_cost_network.node[21].core_layer 	interests[21] 	166353
scalar geant_cost_network.node[21].core_layer 	data[21] 	164877
scalar geant_cost_network.node[21].content_store 	p_hit[21] 	0.0088726984184235
scalar geant_cost_network.node[21].content_store 	hits[21] 	1476
scalar geant_cost_network.node[21].content_store 	misses[21] 	164877
scalar geant_cost_network.node[21].content_store 	decision_yes[21] 	164877
scalar geant_cost_network.node[21].content_store 	decision_no[21] 	0
scalar geant_cost_network.node[21].content_store 	decision_ratio[21] 	1
scalar geant_cost_network.node[22].core_layer 	interests[22] 	177475
scalar geant_cost_network.node[22].core_layer 	repo_load[22] 	177475
scalar geant_cost_network.node[22].core_layer 	data[22] 	0
scalar geant_cost_network.node[22].content_store 	p_hit[22] 	0
scalar geant_cost_network.node[22].content_store 	hits[22] 	0
scalar geant_cost_network.node[22].content_store 	misses[22] 	177475
scalar geant_cost_network.node[22].content_store 	decision_yes[22] 	0
scalar geant_cost_network.node[22].content_store 	decision_no[22] 	177475
scalar geant_cost_network.node[22].content_store 	decision_ratio[22] 	0
scalar geant_cost_network.node[23].core_layer 	interests[23] 	161284
scalar geant_cost_network.node[23].core_layer 	repo_load[23] 	161284
scalar geant_cost_network.node[23].core_layer 	data[23] 	0
scalar geant_cost_network.node[23].content_store 	p_hit[23] 	0
scalar geant_cost_network.node[23].content_store 	hits[23] 	0
scalar geant_cost_network.node[23].content_store 	misses[23] 	161284
scalar geant_cost_network.node[23].content_store 	decision_yes[23] 	0
scalar geant_cost_network.node[23].content_store 	decision_no[23] 	161284
scalar geant_cost_network.node[23].content_store 	decision_ratio[23] 	0
scalar geant_cost_network.node[24].core_layer 	interests[24] 	164877
scalar geant_cost_network.node[24].core_layer 	repo_load[24] 	164877
scalar geant_cost_network.node[24].core_layer 	data[24] 	0
scalar geant_cost_network.node[24].content_store 	p_hit[24] 	0
scalar geant_cost_network.node[24].content_store 	hits[24] 	0
scalar geant_cost_network.node[24].content_store 	misses[24] 	164877
scalar geant_cost_network.node[24].content_store 	decision_yes[24] 	0
scalar geant_cost_network.node[24].content_store 	decision_no[24] 	164877
scalar geant_cost_network.node[24].content_store 	decision_ratio[24] 	0
scalar geant_cost_network.client[5] 	hdistance[5] 	2.7962801252565
scalar geant_cost_network.client[5] 	downloads[5] 	179791
scalar geant_cost_network.client[5] 	avg_time[5] 	0.010044774635
scalar geant_cost_network.client[5] 	interests_sent[5] 	180216
scalar geant_cost_network.client[9] 	hdistance[9] 	2.8619069358305
scalar geant_cost_network.client[9] 	downloads[9] 	179618
scalar geant_cost_network.client[9] 	avg_time[9] 	0.006363145027
scalar geant_cost_network.client[9] 	interests_sent[9] 	179992
scalar geant_cost_network.client[10] 	hdistance[10] 	3.5604767830536
scalar geant_cost_network.client[10] 	downloads[10] 	179201
scalar geant_cost_network.client[10] 	avg_time[10] 	0.007754734315
scalar geant_cost_network.client[10] 	interests_sent[10] 	179602
scalar geant_cost_network.client[12] 	hdistance[12] 	2.8807182532829
scalar geant_cost_network.client[12] 	downloads[12] 	179491
scalar geant_cost_network.client[12] 	avg_time[12] 	0.007773302357
scalar geant_cost_network.client[12] 	interests_sent[12] 	180179
scalar geant_cost_network.client[20] 	hdistance[20] 	3.1881377017355
scalar geant_cost_network.client[20] 	downloads[20] 	179257
scalar geant_cost_network.client[20] 	avg_time[20] 	0.007647439216
scalar geant_cost_network.client[20] 	interests_sent[20] 	179609
