version 2
run General-17-20140626-16:45:04-16609
attr D lce
attr F nrr
attr R lru
attr a 1
attr configname General
attr csize 1e3
attr ctlg 1e5
attr datetime 20140626-16:45:04
attr experiment General
attr inifile omnetpp.ini
attr iterationvars "$net=geant_cost, $rep=3, $priceratiovalue=10, $weights=0.333_0.333_0.334, $lambda=100, $a=1, $ctlg=1e5, $F=nrr, $ttl=1000, $D=lce, $xi=1, $R=lru, $csize=1e3, $pricebits=0, $mytime=1800"
attr iterationvars2 "$net=geant_cost, $rep=3, $priceratiovalue=10, $weights=0.333_0.333_0.334, $lambda=100, $a=1, $ctlg=1e5, $F=nrr, $ttl=1000, $D=lce, $xi=1, $R=lru, $csize=1e3, $pricebits=0, $mytime=1800, $repetition=0"
attr lambda 100
attr measurement "$net=geant_cost, $rep=3, $priceratiovalue=10, $weights=0.333_0.333_0.334, $lambda=100, $a=1, $ctlg=1e5, $F=nrr, $ttl=1000, $D=lce, $xi=1, $R=lru, $csize=1e3, $pricebits=0, $mytime=1800"
attr mytime 1800
attr net geant_cost
attr network "networks.${net=geant_cost, abilene_cost}_network"
attr pricebits 0
attr priceratiovalue 10
attr processid 16609
attr rep 3
attr repetition 0
attr replication #0
attr resultdir results
attr runnumber 17
attr seedset 3
attr ttl 1000
attr weights 0.333_0.333_0.334
attr xi 1

scalar . 	a 	1
scalar . 	csize 	1e3
scalar . 	ctlg 	1e5
scalar . 	lambda 	100
scalar . 	mytime 	1800
scalar . 	pricebits 	0
scalar . 	priceratiovalue 	10
scalar . 	rep 	3
scalar . 	ttl 	1000
scalar . 	xi 	1
scalar geant_cost_network.content_distribution 	repo-0 	22
scalar geant_cost_network.content_distribution 	repo-1 	23
scalar geant_cost_network.content_distribution 	repo-2 	24
scalar geant_cost_network.content_distribution 	client-0 	20
scalar geant_cost_network.content_distribution 	client-1 	10
scalar geant_cost_network.content_distribution 	client-2 	12
scalar geant_cost_network.content_distribution 	client-3 	9
scalar geant_cost_network.content_distribution 	client-4 	5
scalar geant_cost_network.content_distribution 	repo-0_card 	33496
scalar geant_cost_network.content_distribution 	repo-1_card 	33170
scalar geant_cost_network.content_distribution 	repo-2_card 	33334
scalar geant_cost_network.statistics 	repo_popularity[0] 	0.34985511604573
scalar geant_cost_network.statistics 	repo_popularity[1] 	0.30142619076767
scalar geant_cost_network.statistics 	repo_popularity[2] 	0.3487186931866
scalar geant_cost_network.statistics 	stabilization_time 	36060
scalar geant_cost_network.node[7].face$o[4].channel 	price[7] 	0
scalar geant_cost_network.node[7].face$o[4].channel 	represented_price[7] 	0
scalar geant_cost_network.node[8].face$o[3].channel 	price[8] 	0
scalar geant_cost_network.node[8].face$o[3].channel 	represented_price[8] 	0
scalar geant_cost_network.node[21].face$o[5].channel 	price[21] 	0
scalar geant_cost_network.node[21].face$o[5].channel 	represented_price[21] 	0
scalar geant_cost_network.node[22].face$o[1].channel 	price[22] 	0
scalar geant_cost_network.node[22].face$o[1].channel 	represented_price[22] 	0
scalar geant_cost_network.node[23].face$o[1].channel 	price[23] 	1
scalar geant_cost_network.node[23].face$o[1].channel 	represented_price[23] 	1
scalar geant_cost_network.node[24].face$o[1].channel 	price[24] 	10
scalar geant_cost_network.node[24].face$o[1].channel 	represented_price[24] 	10
scalar geant_cost_network.statistics 	p_hit 	0.12540389669697
scalar geant_cost_network.statistics 	interests 	125254.8
scalar geant_cost_network.statistics 	data 	89281.64
scalar geant_cost_network.statistics 	hdistance 	3.0497467447428
scalar geant_cost_network.statistics 	avg_time 	0.007620087959
scalar geant_cost_network.statistics 	downloads 	897558
scalar geant_cost_network.statistics 	total_cost 	1745041
scalar geant_cost_network.statistics 	total_replicas 	100000
scalar geant_cost_network.statistics 	inner_hit 	0.43907246105544
scalar geant_cost_network.statistics 	interests_sent 	899328
scalar geant_cost_network.node[0].core_layer 	interests[0] 	0
scalar geant_cost_network.node[0].core_layer 	data[0] 	0
scalar geant_cost_network.node[0].core_layer 	repo_int[0] 	503465
scalar geant_cost_network.node[0].content_store 	p_hit[0] 	-nan
scalar geant_cost_network.node[0].content_store 	hits[0] 	0
scalar geant_cost_network.node[0].content_store 	misses[0] 	0
scalar geant_cost_network.node[0].content_store 	decision_yes[0] 	0
scalar geant_cost_network.node[0].content_store 	decision_no[0] 	0
scalar geant_cost_network.node[0].content_store 	decision_ratio[0] 	0
scalar geant_cost_network.node[1].core_layer 	interests[1] 	0
scalar geant_cost_network.node[1].core_layer 	data[1] 	0
scalar geant_cost_network.node[1].content_store 	p_hit[1] 	-nan
scalar geant_cost_network.node[1].content_store 	hits[1] 	0
scalar geant_cost_network.node[1].content_store 	misses[1] 	0
scalar geant_cost_network.node[1].content_store 	decision_yes[1] 	0
scalar geant_cost_network.node[1].content_store 	decision_no[1] 	0
scalar geant_cost_network.node[1].content_store 	decision_ratio[1] 	0
scalar geant_cost_network.node[2].core_layer 	interests[2] 	0
scalar geant_cost_network.node[2].core_layer 	data[2] 	0
scalar geant_cost_network.node[2].content_store 	p_hit[2] 	-nan
scalar geant_cost_network.node[2].content_store 	hits[2] 	0
scalar geant_cost_network.node[2].content_store 	misses[2] 	0
scalar geant_cost_network.node[2].content_store 	decision_yes[2] 	0
scalar geant_cost_network.node[2].content_store 	decision_no[2] 	0
scalar geant_cost_network.node[2].content_store 	decision_ratio[2] 	0
scalar geant_cost_network.node[3].core_layer 	interests[3] 	141105
scalar geant_cost_network.node[3].core_layer 	data[3] 	137294
scalar geant_cost_network.node[3].content_store 	p_hit[3] 	0.027001169341979
scalar geant_cost_network.node[3].content_store 	hits[3] 	3810
scalar geant_cost_network.node[3].content_store 	misses[3] 	137295
scalar geant_cost_network.node[3].content_store 	decision_yes[3] 	137265
scalar geant_cost_network.node[3].content_store 	decision_no[3] 	0
scalar geant_cost_network.node[3].content_store 	decision_ratio[3] 	1
scalar geant_cost_network.node[4].core_layer 	interests[4] 	215372
scalar geant_cost_network.node[4].core_layer 	data[4] 	214107
scalar geant_cost_network.node[4].content_store 	p_hit[4] 	0.0058642720502201
scalar geant_cost_network.node[4].content_store 	hits[4] 	1263
scalar geant_cost_network.node[4].content_store 	misses[4] 	214109
scalar geant_cost_network.node[4].content_store 	decision_yes[4] 	214091
scalar geant_cost_network.node[4].content_store 	decision_no[4] 	0
scalar geant_cost_network.node[4].content_store 	decision_ratio[4] 	1
scalar geant_cost_network.node[5].core_layer 	interests[5] 	183766
scalar geant_cost_network.node[5].core_layer 	data[5] 	142101
scalar geant_cost_network.node[5].content_store 	p_hit[5] 	0.22460085108235
scalar geant_cost_network.node[5].content_store 	hits[5] 	41274
scalar geant_cost_network.node[5].content_store 	misses[5] 	142492
scalar geant_cost_network.node[5].content_store 	decision_yes[5] 	142101
scalar geant_cost_network.node[5].content_store 	decision_no[5] 	0
scalar geant_cost_network.node[5].content_store 	decision_ratio[5] 	1
scalar geant_cost_network.node[6].core_layer 	interests[6] 	73294
scalar geant_cost_network.node[6].core_layer 	data[6] 	69873
scalar geant_cost_network.node[6].content_store 	p_hit[6] 	0.046675034791388
scalar geant_cost_network.node[6].content_store 	hits[6] 	3421
scalar geant_cost_network.node[6].content_store 	misses[6] 	69873
scalar geant_cost_network.node[6].content_store 	decision_yes[6] 	69873
scalar geant_cost_network.node[6].content_store 	decision_no[6] 	0
scalar geant_cost_network.node[6].content_store 	decision_ratio[6] 	1
scalar geant_cost_network.node[7].core_layer 	interests[7] 	248129
scalar geant_cost_network.node[7].core_layer 	data[7] 	246371
scalar geant_cost_network.node[7].content_store 	p_hit[7] 	0.0070729338368349
scalar geant_cost_network.node[7].content_store 	hits[7] 	1755
scalar geant_cost_network.node[7].content_store 	misses[7] 	246374
scalar geant_cost_network.node[7].content_store 	decision_yes[7] 	246357
scalar geant_cost_network.node[7].content_store 	decision_no[7] 	0
scalar geant_cost_network.node[7].content_store 	decision_ratio[7] 	1
scalar geant_cost_network.node[8].core_layer 	interests[8] 	244112
scalar geant_cost_network.node[8].core_layer 	data[8] 	242139
scalar geant_cost_network.node[8].content_store 	p_hit[8] 	0.0080823556400341
scalar geant_cost_network.node[8].content_store 	hits[8] 	1973
scalar geant_cost_network.node[8].content_store 	misses[8] 	242139
scalar geant_cost_network.node[8].content_store 	decision_yes[8] 	242128
scalar geant_cost_network.node[8].content_store 	decision_no[8] 	0
scalar geant_cost_network.node[8].content_store 	decision_ratio[8] 	1
scalar geant_cost_network.node[9].core_layer 	interests[9] 	357038
scalar geant_cost_network.node[9].core_layer 	data[9] 	314802
scalar geant_cost_network.node[9].content_store 	p_hit[9] 	0.11616690660378
scalar geant_cost_network.node[9].content_store 	hits[9] 	41476
scalar geant_cost_network.node[9].content_store 	misses[9] 	315562
scalar geant_cost_network.node[9].content_store 	decision_yes[9] 	314752
scalar geant_cost_network.node[9].content_store 	decision_no[9] 	0
scalar geant_cost_network.node[9].content_store 	decision_ratio[9] 	1
scalar geant_cost_network.node[10].core_layer 	interests[10] 	189721
scalar geant_cost_network.node[10].core_layer 	data[10] 	138952
scalar geant_cost_network.node[10].content_store 	p_hit[10] 	0.26621196388381
scalar geant_cost_network.node[10].content_store 	hits[10] 	50506
scalar geant_cost_network.node[10].content_store 	misses[10] 	139215
scalar geant_cost_network.node[10].content_store 	decision_yes[10] 	138952
scalar geant_cost_network.node[10].content_store 	decision_no[10] 	0
scalar geant_cost_network.node[10].content_store 	decision_ratio[10] 	1
scalar geant_cost_network.node[11].core_layer 	interests[11] 	0
scalar geant_cost_network.node[11].core_layer 	data[11] 	0
scalar geant_cost_network.node[11].content_store 	p_hit[11] 	-nan
scalar geant_cost_network.node[11].content_store 	hits[11] 	0
scalar geant_cost_network.node[11].content_store 	misses[11] 	0
scalar geant_cost_network.node[11].content_store 	decision_yes[11] 	0
scalar geant_cost_network.node[11].content_store 	decision_no[11] 	0
scalar geant_cost_network.node[11].content_store 	decision_ratio[11] 	0
scalar geant_cost_network.node[12].core_layer 	interests[12] 	311870
scalar geant_cost_network.node[12].core_layer 	data[12] 	257437
scalar geant_cost_network.node[12].content_store 	p_hit[12] 	0.1704299868535
scalar geant_cost_network.node[12].content_store 	hits[12] 	53152
scalar geant_cost_network.node[12].content_store 	misses[12] 	258718
scalar geant_cost_network.node[12].content_store 	decision_yes[12] 	257433
scalar geant_cost_network.node[12].content_store 	decision_no[12] 	0
scalar geant_cost_network.node[12].content_store 	decision_ratio[12] 	1
scalar geant_cost_network.node[13].core_layer 	interests[13] 	51521
scalar geant_cost_network.node[13].core_layer 	data[13] 	889
scalar geant_cost_network.node[13].content_store 	p_hit[13] 	0.98274490013781
scalar geant_cost_network.node[13].content_store 	hits[13] 	50632
scalar geant_cost_network.node[13].content_store 	misses[13] 	889
scalar geant_cost_network.node[13].content_store 	decision_yes[13] 	889
scalar geant_cost_network.node[13].content_store 	decision_no[13] 	0
scalar geant_cost_network.node[13].content_store 	decision_ratio[13] 	1
scalar geant_cost_network.node[14].core_layer 	interests[14] 	87559
scalar geant_cost_network.node[14].core_layer 	data[14] 	64748
scalar geant_cost_network.node[14].content_store 	p_hit[14] 	0.25879692550166
scalar geant_cost_network.node[14].content_store 	hits[14] 	22660
scalar geant_cost_network.node[14].content_store 	misses[14] 	64899
scalar geant_cost_network.node[14].content_store 	decision_yes[14] 	64744
scalar geant_cost_network.node[14].content_store 	decision_no[14] 	0
scalar geant_cost_network.node[14].content_store 	decision_ratio[14] 	1
scalar geant_cost_network.node[15].core_layer 	interests[15] 	74239
scalar geant_cost_network.node[15].core_layer 	data[15] 	7
scalar geant_cost_network.node[15].content_store 	p_hit[15] 	0.99990570993683
scalar geant_cost_network.node[15].content_store 	hits[15] 	74232
scalar geant_cost_network.node[15].content_store 	misses[15] 	7
scalar geant_cost_network.node[15].content_store 	decision_yes[15] 	7
scalar geant_cost_network.node[15].content_store 	decision_no[15] 	0
scalar geant_cost_network.node[15].content_store 	decision_ratio[15] 	1
scalar geant_cost_network.node[16].core_layer 	interests[16] 	0
scalar geant_cost_network.node[16].core_layer 	data[16] 	0
scalar geant_cost_network.node[16].content_store 	p_hit[16] 	-nan
scalar geant_cost_network.node[16].content_store 	hits[16] 	0
scalar geant_cost_network.node[16].content_store 	misses[16] 	0
scalar geant_cost_network.node[16].content_store 	decision_yes[16] 	0
scalar geant_cost_network.node[16].content_store 	decision_no[16] 	0
scalar geant_cost_network.node[16].content_store 	decision_ratio[16] 	0
scalar geant_cost_network.node[17].core_layer 	interests[17] 	0
scalar geant_cost_network.node[17].core_layer 	data[17] 	0
scalar geant_cost_network.node[17].content_store 	p_hit[17] 	-nan
scalar geant_cost_network.node[17].content_store 	hits[17] 	0
scalar geant_cost_network.node[17].content_store 	misses[17] 	0
scalar geant_cost_network.node[17].content_store 	decision_yes[17] 	0
scalar geant_cost_network.node[17].content_store 	decision_no[17] 	0
scalar geant_cost_network.node[17].content_store 	decision_ratio[17] 	0
scalar geant_cost_network.node[18].core_layer 	interests[18] 	110945
scalar geant_cost_network.node[18].core_layer 	data[18] 	105173
scalar geant_cost_network.node[18].content_store 	p_hit[18] 	0.052034792014061
scalar geant_cost_network.node[18].content_store 	hits[18] 	5773
scalar geant_cost_network.node[18].content_store 	misses[18] 	105172
scalar geant_cost_network.node[18].content_store 	decision_yes[18] 	105173
scalar geant_cost_network.node[18].content_store 	decision_no[18] 	0
scalar geant_cost_network.node[18].content_store 	decision_ratio[18] 	1
scalar geant_cost_network.node[19].core_layer 	interests[19] 	0
scalar geant_cost_network.node[19].core_layer 	data[19] 	0
scalar geant_cost_network.node[19].content_store 	p_hit[19] 	-nan
scalar geant_cost_network.node[19].content_store 	hits[19] 	0
scalar geant_cost_network.node[19].content_store 	misses[19] 	0
scalar geant_cost_network.node[19].content_store 	decision_yes[19] 	0
scalar geant_cost_network.node[19].content_store 	decision_no[19] 	0
scalar geant_cost_network.node[19].content_store 	decision_ratio[19] 	0
scalar geant_cost_network.node[20].core_layer 	interests[20] 	180406
scalar geant_cost_network.node[20].core_layer 	data[20] 	140587
scalar geant_cost_network.node[20].content_store 	p_hit[20] 	0.21890624480339
scalar geant_cost_network.node[20].content_store 	hits[20] 	39492
scalar geant_cost_network.node[20].content_store 	misses[20] 	140914
scalar geant_cost_network.node[20].content_store 	decision_yes[20] 	140587
scalar geant_cost_network.node[20].content_store 	decision_no[20] 	0
scalar geant_cost_network.node[20].content_store 	decision_ratio[20] 	1
scalar geant_cost_network.node[21].core_layer 	interests[21] 	158828
scalar geant_cost_network.node[21].core_layer 	data[21] 	157561
scalar geant_cost_network.node[21].content_store 	p_hit[21] 	0.0079771828644823
scalar geant_cost_network.node[21].content_store 	hits[21] 	1267
scalar geant_cost_network.node[21].content_store 	misses[21] 	157561
scalar geant_cost_network.node[21].content_store 	decision_yes[21] 	157561
scalar geant_cost_network.node[21].content_store 	decision_no[21] 	0
scalar geant_cost_network.node[21].content_store 	decision_ratio[21] 	1
scalar geant_cost_network.node[22].core_layer 	interests[22] 	176473
scalar geant_cost_network.node[22].core_layer 	repo_load[22] 	176473
scalar geant_cost_network.node[22].core_layer 	data[22] 	0
scalar geant_cost_network.node[22].content_store 	p_hit[22] 	0
scalar geant_cost_network.node[22].content_store 	hits[22] 	0
scalar geant_cost_network.node[22].content_store 	misses[22] 	176473
scalar geant_cost_network.node[22].content_store 	decision_yes[22] 	0
scalar geant_cost_network.node[22].content_store 	decision_no[22] 	176473
scalar geant_cost_network.node[22].content_store 	decision_ratio[22] 	0
scalar geant_cost_network.node[23].core_layer 	interests[23] 	169431
scalar geant_cost_network.node[23].core_layer 	repo_load[23] 	169431
scalar geant_cost_network.node[23].core_layer 	data[23] 	0
scalar geant_cost_network.node[23].content_store 	p_hit[23] 	0
scalar geant_cost_network.node[23].content_store 	hits[23] 	0
scalar geant_cost_network.node[23].content_store 	misses[23] 	169431
scalar geant_cost_network.node[23].content_store 	decision_yes[23] 	0
scalar geant_cost_network.node[23].content_store 	decision_no[23] 	169431
scalar geant_cost_network.node[23].content_store 	decision_ratio[23] 	0
scalar geant_cost_network.node[24].core_layer 	interests[24] 	157561
scalar geant_cost_network.node[24].core_layer 	repo_load[24] 	157561
scalar geant_cost_network.node[24].core_layer 	data[24] 	0
scalar geant_cost_network.node[24].content_store 	p_hit[24] 	0
scalar geant_cost_network.node[24].content_store 	hits[24] 	0
scalar geant_cost_network.node[24].content_store 	misses[24] 	157561
scalar geant_cost_network.node[24].content_store 	decision_yes[24] 	0
scalar geant_cost_network.node[24].content_store 	decision_no[24] 	157561
scalar geant_cost_network.node[24].content_store 	decision_ratio[24] 	0
scalar geant_cost_network.client[5] 	hdistance[5] 	2.8104401410409
scalar geant_cost_network.client[5] 	downloads[5] 	179806
scalar geant_cost_network.client[5] 	avg_time[5] 	0.009991771426
scalar geant_cost_network.client[5] 	interests_sent[5] 	180196
scalar geant_cost_network.client[9] 	hdistance[9] 	2.8261363320066
scalar geant_cost_network.client[9] 	downloads[9] 	179635
scalar geant_cost_network.client[9] 	avg_time[9] 	0.006054340873
scalar geant_cost_network.client[9] 	interests_sent[9] 	179930
scalar geant_cost_network.client[10] 	hdistance[10] 	3.539914124748
scalar geant_cost_network.client[10] 	downloads[10] 	179097
scalar geant_cost_network.client[10] 	avg_time[10] 	0.007459288855
scalar geant_cost_network.client[10] 	interests_sent[10] 	179360
scalar geant_cost_network.client[12] 	hdistance[12] 	2.8704976091522
scalar geant_cost_network.client[12] 	downloads[12] 	179016
scalar geant_cost_network.client[12] 	avg_time[12] 	0.006951452915
scalar geant_cost_network.client[12] 	interests_sent[12] 	179511
scalar geant_cost_network.client[20] 	hdistance[20] 	3.2017455167663
scalar geant_cost_network.client[20] 	downloads[20] 	180004
scalar geant_cost_network.client[20] 	avg_time[20] 	0.00764358573
scalar geant_cost_network.client[20] 	interests_sent[20] 	180331
