version 2
run General-27-20140426-05:02:33-23444
attr D lce
attr F nrr
attr R lru
attr a 1.2
attr configname General
attr csize 1000
attr ctlg 10^5
attr datetime 20140426-05:02:33
attr experiment General
attr inifile omnetpp.ini
attr iterationvars "$net=one_cache_scenario, $rep=5, $priceratiovalue=10, $a=1.2, $ctlg=10^5, $F=nrr, $ttl=1000, $D=lce, $R=lru, $csize=1000"
attr iterationvars2 "$net=one_cache_scenario, $rep=5, $priceratiovalue=10, $a=1.2, $ctlg=10^5, $F=nrr, $ttl=1000, $D=lce, $R=lru, $csize=1000, $repetition=0"
attr measurement "$net=one_cache_scenario, $rep=5, $priceratiovalue=10, $a=1.2, $ctlg=10^5, $F=nrr, $ttl=1000, $D=lce, $R=lru, $csize=1000"
attr net one_cache_scenario
attr network networks.${net=one_cache_scenario}_network
attr priceratiovalue 10
attr processid 23444
attr rep 5
attr repetition 0
attr replication #0
attr resultdir results
attr runnumber 27
attr seedset 5
attr ttl 1000

scalar . 	a 	1.2
scalar . 	csize 	1000
scalar . 	priceratiovalue 	10
scalar . 	rep 	5
scalar . 	ttl 	1000
scalar one_cache_scenario_network.content_distribution 	repo-0 	3
scalar one_cache_scenario_network.content_distribution 	repo-1 	4
scalar one_cache_scenario_network.content_distribution 	client-0 	0
scalar one_cache_scenario_network.content_distribution 	repo-0_card 	49923
scalar one_cache_scenario_network.content_distribution 	repo-1_card 	50077
scalar one_cache_scenario_network.statistics 	p_hit 	0.56323638752621
scalar one_cache_scenario_network.statistics 	interests 	50839.4
scalar one_cache_scenario_network.statistics 	data 	14803.2
scalar one_cache_scenario_network.statistics 	hdistance 	0.41078693091947
scalar one_cache_scenario_network.statistics 	avg_time 	0
scalar one_cache_scenario_network.statistics 	downloads 	180181
scalar one_cache_scenario_network.statistics 	total_cost 	18485
scalar one_cache_scenario_network.statistics 	interests_sent 	180181
scalar one_cache_scenario_network.node[0].core_layer 	interests[0] 	180181
scalar one_cache_scenario_network.node[0].core_layer 	data[0] 	37008
scalar one_cache_scenario_network.node[0].core_layer 	repo_int[0] 	37008
scalar one_cache_scenario_network.node[0].content_store 	p_hit[0] 	0.79460653454027
scalar one_cache_scenario_network.node[0].content_store 	hits[0] 	143173
scalar one_cache_scenario_network.node[0].content_store 	misses[0] 	37008
scalar one_cache_scenario_network.node[0].content_store 	decision_yes[0] 	37008
scalar one_cache_scenario_network.node[0].content_store 	decision_no[0] 	0
scalar one_cache_scenario_network.node[1].core_layer 	interests[1] 	18526
scalar one_cache_scenario_network.node[1].core_layer 	data[1] 	18526
scalar one_cache_scenario_network.node[1].content_store 	p_hit[1] 	0
scalar one_cache_scenario_network.node[1].content_store 	hits[1] 	0
scalar one_cache_scenario_network.node[1].content_store 	misses[1] 	18526
scalar one_cache_scenario_network.node[1].content_store 	decision_yes[1] 	0
scalar one_cache_scenario_network.node[1].content_store 	decision_no[1] 	18526
scalar one_cache_scenario_network.node[2].core_layer 	interests[2] 	18482
scalar one_cache_scenario_network.node[2].core_layer 	data[2] 	18482
scalar one_cache_scenario_network.node[2].content_store 	p_hit[2] 	0
scalar one_cache_scenario_network.node[2].content_store 	hits[2] 	0
scalar one_cache_scenario_network.node[2].content_store 	misses[2] 	18482
scalar one_cache_scenario_network.node[2].content_store 	decision_yes[2] 	0
scalar one_cache_scenario_network.node[2].content_store 	decision_no[2] 	18482
scalar one_cache_scenario_network.node[3].core_layer 	interests[3] 	18526
scalar one_cache_scenario_network.node[3].core_layer 	repo_load[3] 	18526
scalar one_cache_scenario_network.node[3].core_layer 	data[3] 	0
scalar one_cache_scenario_network.node[3].content_store 	p_hit[3] 	0
scalar one_cache_scenario_network.node[3].content_store 	hits[3] 	0
scalar one_cache_scenario_network.node[3].content_store 	misses[3] 	18526
scalar one_cache_scenario_network.node[3].content_store 	decision_yes[3] 	0
scalar one_cache_scenario_network.node[3].content_store 	decision_no[3] 	18526
scalar one_cache_scenario_network.node[4].core_layer 	interests[4] 	18482
scalar one_cache_scenario_network.node[4].core_layer 	repo_load[4] 	18482
scalar one_cache_scenario_network.node[4].core_layer 	data[4] 	0
scalar one_cache_scenario_network.node[4].content_store 	p_hit[4] 	0
scalar one_cache_scenario_network.node[4].content_store 	hits[4] 	0
scalar one_cache_scenario_network.node[4].content_store 	misses[4] 	18482
scalar one_cache_scenario_network.node[4].content_store 	decision_yes[4] 	0
scalar one_cache_scenario_network.node[4].content_store 	decision_no[4] 	18482
scalar one_cache_scenario_network.client[0] 	hdistance[0] 	0.41078693091947
scalar one_cache_scenario_network.client[0] 	downloads[0] 	180181
scalar one_cache_scenario_network.client[0] 	avg_time[0] 	0
scalar one_cache_scenario_network.client[0] 	interests_sent[0] 	180181
