version 2
run General-45-20140426-05:03:06-23511
attr D lce
attr F nrr
attr R lru
attr a 1.2
attr configname General
attr csize 1000
attr ctlg 10^5
attr datetime 20140426-05:03:06
attr experiment General
attr inifile omnetpp.ini
attr iterationvars "$net=one_cache_scenario, $rep=8, $priceratiovalue=10, $a=1.2, $ctlg=10^5, $F=nrr, $ttl=1000, $D=lce, $R=lru, $csize=1000"
attr iterationvars2 "$net=one_cache_scenario, $rep=8, $priceratiovalue=10, $a=1.2, $ctlg=10^5, $F=nrr, $ttl=1000, $D=lce, $R=lru, $csize=1000, $repetition=0"
attr measurement "$net=one_cache_scenario, $rep=8, $priceratiovalue=10, $a=1.2, $ctlg=10^5, $F=nrr, $ttl=1000, $D=lce, $R=lru, $csize=1000"
attr net one_cache_scenario
attr network networks.${net=one_cache_scenario}_network
attr priceratiovalue 10
attr processid 23511
attr rep 8
attr repetition 0
attr replication #0
attr resultdir results
attr runnumber 45
attr seedset 8
attr ttl 1000

scalar . 	a 	1.2
scalar . 	csize 	1000
scalar . 	priceratiovalue 	10
scalar . 	rep 	8
scalar . 	ttl 	1000
scalar one_cache_scenario_network.content_distribution 	repo-0 	3
scalar one_cache_scenario_network.content_distribution 	repo-1 	4
scalar one_cache_scenario_network.content_distribution 	client-0 	0
scalar one_cache_scenario_network.content_distribution 	repo-0_card 	50088
scalar one_cache_scenario_network.content_distribution 	repo-1_card 	49912
scalar one_cache_scenario_network.statistics 	p_hit 	0.56518296142209
scalar one_cache_scenario_network.statistics 	interests 	50764.8
scalar one_cache_scenario_network.statistics 	data 	14715.6
scalar one_cache_scenario_network.statistics 	hdistance 	0.40820878133218
scalar one_cache_scenario_network.statistics 	avg_time 	0
scalar one_cache_scenario_network.statistics 	downloads 	180246
scalar one_cache_scenario_network.statistics 	total_cost 	18568
scalar one_cache_scenario_network.statistics 	interests_sent 	180246
scalar one_cache_scenario_network.node[0].core_layer 	interests[0] 	180246
scalar one_cache_scenario_network.node[0].core_layer 	data[0] 	36789
scalar one_cache_scenario_network.node[0].core_layer 	repo_int[0] 	36789
scalar one_cache_scenario_network.node[0].content_store 	p_hit[0] 	0.79589560933391
scalar one_cache_scenario_network.node[0].content_store 	hits[0] 	143457
scalar one_cache_scenario_network.node[0].content_store 	misses[0] 	36789
scalar one_cache_scenario_network.node[0].content_store 	decision_yes[0] 	36789
scalar one_cache_scenario_network.node[0].content_store 	decision_no[0] 	0
scalar one_cache_scenario_network.node[1].core_layer 	interests[1] 	18181
scalar one_cache_scenario_network.node[1].core_layer 	data[1] 	18181
scalar one_cache_scenario_network.node[1].content_store 	p_hit[1] 	0
scalar one_cache_scenario_network.node[1].content_store 	hits[1] 	0
scalar one_cache_scenario_network.node[1].content_store 	misses[1] 	18181
scalar one_cache_scenario_network.node[1].content_store 	decision_yes[1] 	0
scalar one_cache_scenario_network.node[1].content_store 	decision_no[1] 	18181
scalar one_cache_scenario_network.node[2].core_layer 	interests[2] 	18608
scalar one_cache_scenario_network.node[2].core_layer 	data[2] 	18608
scalar one_cache_scenario_network.node[2].content_store 	p_hit[2] 	0
scalar one_cache_scenario_network.node[2].content_store 	hits[2] 	0
scalar one_cache_scenario_network.node[2].content_store 	misses[2] 	18608
scalar one_cache_scenario_network.node[2].content_store 	decision_yes[2] 	0
scalar one_cache_scenario_network.node[2].content_store 	decision_no[2] 	18608
scalar one_cache_scenario_network.node[3].core_layer 	interests[3] 	18181
scalar one_cache_scenario_network.node[3].core_layer 	repo_load[3] 	18181
scalar one_cache_scenario_network.node[3].core_layer 	data[3] 	0
scalar one_cache_scenario_network.node[3].content_store 	p_hit[3] 	0
scalar one_cache_scenario_network.node[3].content_store 	hits[3] 	0
scalar one_cache_scenario_network.node[3].content_store 	misses[3] 	18181
scalar one_cache_scenario_network.node[3].content_store 	decision_yes[3] 	0
scalar one_cache_scenario_network.node[3].content_store 	decision_no[3] 	18181
scalar one_cache_scenario_network.node[4].core_layer 	interests[4] 	18608
scalar one_cache_scenario_network.node[4].core_layer 	repo_load[4] 	18608
scalar one_cache_scenario_network.node[4].core_layer 	data[4] 	0
scalar one_cache_scenario_network.node[4].content_store 	p_hit[4] 	0
scalar one_cache_scenario_network.node[4].content_store 	hits[4] 	0
scalar one_cache_scenario_network.node[4].content_store 	misses[4] 	18608
scalar one_cache_scenario_network.node[4].content_store 	decision_yes[4] 	0
scalar one_cache_scenario_network.node[4].content_store 	decision_no[4] 	18608
scalar one_cache_scenario_network.client[0] 	hdistance[0] 	0.40820878133218
scalar one_cache_scenario_network.client[0] 	downloads[0] 	180246
scalar one_cache_scenario_network.client[0] 	avg_time[0] 	0
scalar one_cache_scenario_network.client[0] 	interests_sent[0] 	180246
