version 2
run General-708-20140502-14:33:12-17195
attr D costprob0.1
attr F nrr
attr R lru
attr a 1.2
attr configname General
attr csize 1e3
attr ctlg 1e5
attr datetime 20140502-14:33:12
attr experiment General
attr inifile omnetpp.ini
attr iterationvars "$net=three_caches_scenario_3_links, $rep=5, $priceratiovalue=10, $weights=0.333_0.333_0.334, $a=1.2, $ctlg=1e5, $F=nrr, $ttl=1000, $D=costprob0.1, $xi=1, $R=lru, $csize=1e3"
attr iterationvars2 "$net=three_caches_scenario_3_links, $rep=5, $priceratiovalue=10, $weights=0.333_0.333_0.334, $a=1.2, $ctlg=1e5, $F=nrr, $ttl=1000, $D=costprob0.1, $xi=1, $R=lru, $csize=1e3, $repetition=0"
attr measurement "$net=three_caches_scenario_3_links, $rep=5, $priceratiovalue=10, $weights=0.333_0.333_0.334, $a=1.2, $ctlg=1e5, $F=nrr, $ttl=1000, $D=costprob0.1, $xi=1, $R=lru, $csize=1e3"
attr net three_caches_scenario_3_links
attr network networks.${net=three_caches_scenario_3_links}_network
attr priceratiovalue 10
attr processid 17195
attr rep 5
attr repetition 0
attr replication #0
attr resultdir results
attr runnumber 708
attr seedset 5
attr ttl 1000
attr weights 0.333_0.333_0.334
attr xi 1

scalar . 	a 	1.2
scalar . 	csize 	1e3
scalar . 	ctlg 	1e5
scalar . 	priceratiovalue 	10
scalar . 	rep 	5
scalar . 	ttl 	1000
scalar . 	xi 	1
scalar three_caches_scenario_3_links_network.content_distribution 	repo-0 	4
scalar three_caches_scenario_3_links_network.content_distribution 	repo-1 	5
scalar three_caches_scenario_3_links_network.content_distribution 	repo-2 	6
scalar three_caches_scenario_3_links_network.content_distribution 	client-0 	0
scalar three_caches_scenario_3_links_network.content_distribution 	repo-0_card 	33274
scalar three_caches_scenario_3_links_network.content_distribution 	repo-1_card 	33323
scalar three_caches_scenario_3_links_network.content_distribution 	repo-2_card 	33403
scalar three_caches_scenario_3_links_network.statistics 	p_hit 	0.14160295875335
scalar three_caches_scenario_3_links_network.statistics 	interests 	63347.142857143
scalar three_caches_scenario_3_links_network.statistics 	data 	37547.428571429
scalar three_caches_scenario_3_links_network.statistics 	hdistance 	1.5717892778436
scalar three_caches_scenario_3_links_network.statistics 	avg_time 	0
scalar three_caches_scenario_3_links_network.statistics 	downloads 	180598
scalar three_caches_scenario_3_links_network.statistics 	total_cost 	111057
scalar three_caches_scenario_3_links_network.statistics 	total_replicas 	100000
scalar three_caches_scenario_3_links_network.statistics 	interests_sent 	180598
scalar three_caches_scenario_3_links_network.node[0].core_layer 	interests[0] 	180598
scalar three_caches_scenario_3_links_network.node[0].core_layer 	data[0] 	145025
scalar three_caches_scenario_3_links_network.node[0].core_layer 	repo_int[0] 	117807
scalar three_caches_scenario_3_links_network.node[0].content_store 	p_hit[0] 	0.19697338840962
scalar three_caches_scenario_3_links_network.node[0].content_store 	hits[0] 	35573
scalar three_caches_scenario_3_links_network.node[0].content_store 	misses[0] 	145025
scalar three_caches_scenario_3_links_network.node[0].content_store 	decision_yes[0] 	3020
scalar three_caches_scenario_3_links_network.node[0].content_store 	decision_no[0] 	142005
scalar three_caches_scenario_3_links_network.node[1].core_layer 	interests[1] 	96777
scalar three_caches_scenario_3_links_network.node[1].core_layer 	data[1] 	96777
scalar three_caches_scenario_3_links_network.node[1].content_store 	p_hit[1] 	0
scalar three_caches_scenario_3_links_network.node[1].content_store 	hits[1] 	0
scalar three_caches_scenario_3_links_network.node[1].content_store 	misses[1] 	96777
scalar three_caches_scenario_3_links_network.node[1].content_store 	decision_yes[1] 	0
scalar three_caches_scenario_3_links_network.node[1].content_store 	decision_no[1] 	96777
scalar three_caches_scenario_3_links_network.node[2].core_layer 	interests[2] 	22867
scalar three_caches_scenario_3_links_network.node[2].core_layer 	data[2] 	11027
scalar three_caches_scenario_3_links_network.node[2].content_store 	p_hit[2] 	0.51777670879433
scalar three_caches_scenario_3_links_network.node[2].content_store 	hits[2] 	11840
scalar three_caches_scenario_3_links_network.node[2].content_store 	misses[2] 	11027
scalar three_caches_scenario_3_links_network.node[2].content_store 	decision_yes[2] 	300
scalar three_caches_scenario_3_links_network.node[2].content_store 	decision_no[2] 	10727
scalar three_caches_scenario_3_links_network.node[3].core_layer 	interests[3] 	25381
scalar three_caches_scenario_3_links_network.node[3].core_layer 	data[3] 	10003
scalar three_caches_scenario_3_links_network.node[3].content_store 	p_hit[3] 	0.60588629289626
scalar three_caches_scenario_3_links_network.node[3].content_store 	hits[3] 	15378
scalar three_caches_scenario_3_links_network.node[3].content_store 	misses[3] 	10003
scalar three_caches_scenario_3_links_network.node[3].content_store 	decision_yes[3] 	2770
scalar three_caches_scenario_3_links_network.node[3].content_store 	decision_no[3] 	7233
scalar three_caches_scenario_3_links_network.node[4].core_layer 	interests[4] 	96777
scalar three_caches_scenario_3_links_network.node[4].core_layer 	repo_load[4] 	96777
scalar three_caches_scenario_3_links_network.node[4].core_layer 	data[4] 	0
scalar three_caches_scenario_3_links_network.node[4].content_store 	p_hit[4] 	0
scalar three_caches_scenario_3_links_network.node[4].content_store 	hits[4] 	0
scalar three_caches_scenario_3_links_network.node[4].content_store 	misses[4] 	96777
scalar three_caches_scenario_3_links_network.node[4].content_store 	decision_yes[4] 	0
scalar three_caches_scenario_3_links_network.node[4].content_store 	decision_no[4] 	96777
scalar three_caches_scenario_3_links_network.node[5].core_layer 	interests[5] 	11027
scalar three_caches_scenario_3_links_network.node[5].core_layer 	repo_load[5] 	11027
scalar three_caches_scenario_3_links_network.node[5].core_layer 	data[5] 	0
scalar three_caches_scenario_3_links_network.node[5].content_store 	p_hit[5] 	0
scalar three_caches_scenario_3_links_network.node[5].content_store 	hits[5] 	0
scalar three_caches_scenario_3_links_network.node[5].content_store 	misses[5] 	11027
scalar three_caches_scenario_3_links_network.node[5].content_store 	decision_yes[5] 	0
scalar three_caches_scenario_3_links_network.node[5].content_store 	decision_no[5] 	11027
scalar three_caches_scenario_3_links_network.node[6].core_layer 	interests[6] 	10003
scalar three_caches_scenario_3_links_network.node[6].core_layer 	repo_load[6] 	10003
scalar three_caches_scenario_3_links_network.node[6].core_layer 	data[6] 	0
scalar three_caches_scenario_3_links_network.node[6].content_store 	p_hit[6] 	0
scalar three_caches_scenario_3_links_network.node[6].content_store 	hits[6] 	0
scalar three_caches_scenario_3_links_network.node[6].content_store 	misses[6] 	10003
scalar three_caches_scenario_3_links_network.node[6].content_store 	decision_yes[6] 	0
scalar three_caches_scenario_3_links_network.node[6].content_store 	decision_no[6] 	10003
scalar three_caches_scenario_3_links_network.client[0] 	hdistance[0] 	1.5717892778436
scalar three_caches_scenario_3_links_network.client[0] 	downloads[0] 	180598
scalar three_caches_scenario_3_links_network.client[0] 	avg_time[0] 	0
scalar three_caches_scenario_3_links_network.client[0] 	interests_sent[0] 	180598
