version 2
run General-1046-20140502-03:04:57-9950
attr D costprob0.5
attr F nrr
attr R lru
attr a 0.8
attr configname General
attr csize 1e3
attr ctlg 1e5
attr datetime 20140502-03:04:57
attr experiment General
attr inifile omnetpp.ini
attr iterationvars "$net=three_caches_scenario_3_links, $rep=2, $priceratiovalue=10, $weights=0.2_0.4_0.4, $a=0.8, $ctlg=1e5, $F=nrr, $ttl=1000, $D=costprob0.5, $xi=1, $R=lru, $csize=1e3"
attr iterationvars2 "$net=three_caches_scenario_3_links, $rep=2, $priceratiovalue=10, $weights=0.2_0.4_0.4, $a=0.8, $ctlg=1e5, $F=nrr, $ttl=1000, $D=costprob0.5, $xi=1, $R=lru, $csize=1e3, $repetition=0"
attr measurement "$net=three_caches_scenario_3_links, $rep=2, $priceratiovalue=10, $weights=0.2_0.4_0.4, $a=0.8, $ctlg=1e5, $F=nrr, $ttl=1000, $D=costprob0.5, $xi=1, $R=lru, $csize=1e3"
attr net three_caches_scenario_3_links
attr network networks.${net=three_caches_scenario_3_links}_network
attr priceratiovalue 10
attr processid 9950
attr rep 2
attr repetition 0
attr replication #0
attr resultdir results
attr runnumber 1046
attr seedset 2
attr ttl 1000
attr weights 0.2_0.4_0.4
attr xi 1

scalar . 	a 	0.8
scalar . 	csize 	1e3
scalar . 	ctlg 	1e5
scalar . 	priceratiovalue 	10
scalar . 	rep 	2
scalar . 	ttl 	1000
scalar . 	xi 	1
scalar three_caches_scenario_3_links_network.content_distribution 	repo-0 	4
scalar three_caches_scenario_3_links_network.content_distribution 	repo-1 	5
scalar three_caches_scenario_3_links_network.content_distribution 	repo-2 	6
scalar three_caches_scenario_3_links_network.content_distribution 	client-0 	0
scalar three_caches_scenario_3_links_network.content_distribution 	repo-0_card 	20021
scalar three_caches_scenario_3_links_network.content_distribution 	repo-1_card 	39941
scalar three_caches_scenario_3_links_network.content_distribution 	repo-2_card 	40038
scalar three_caches_scenario_3_links_network.statistics 	p_hit 	0.06172687612067
scalar three_caches_scenario_3_links_network.statistics 	interests 	70828.142857143
scalar three_caches_scenario_3_links_network.statistics 	data 	45134.571428571
scalar three_caches_scenario_3_links_network.statistics 	hdistance 	2.3868449584387
scalar three_caches_scenario_3_links_network.statistics 	avg_time 	0
scalar three_caches_scenario_3_links_network.statistics 	downloads 	179855
scalar three_caches_scenario_3_links_network.statistics 	total_cost 	643039
scalar three_caches_scenario_3_links_network.statistics 	total_replicas 	100000
scalar three_caches_scenario_3_links_network.statistics 	interests_sent 	179855
scalar three_caches_scenario_3_links_network.node[0].core_layer 	interests[0] 	179855
scalar three_caches_scenario_3_links_network.node[0].core_layer 	data[0] 	166691
scalar three_caches_scenario_3_links_network.node[0].core_layer 	repo_int[0] 	149251
scalar three_caches_scenario_3_links_network.node[0].content_store 	p_hit[0] 	0.073192293792222
scalar three_caches_scenario_3_links_network.node[0].content_store 	hits[0] 	13164
scalar three_caches_scenario_3_links_network.node[0].content_store 	misses[0] 	166691
scalar three_caches_scenario_3_links_network.node[0].content_store 	decision_yes[0] 	65013
scalar three_caches_scenario_3_links_network.node[0].content_store 	decision_no[0] 	101678
scalar three_caches_scenario_3_links_network.node[1].core_layer 	interests[1] 	35907
scalar three_caches_scenario_3_links_network.node[1].core_layer 	data[1] 	35907
scalar three_caches_scenario_3_links_network.node[1].content_store 	p_hit[1] 	0
scalar three_caches_scenario_3_links_network.node[1].content_store 	hits[1] 	0
scalar three_caches_scenario_3_links_network.node[1].content_store 	misses[1] 	35907
scalar three_caches_scenario_3_links_network.node[1].content_store 	decision_yes[1] 	0
scalar three_caches_scenario_3_links_network.node[1].content_store 	decision_no[1] 	35907
scalar three_caches_scenario_3_links_network.node[2].core_layer 	interests[2] 	71075
scalar three_caches_scenario_3_links_network.node[2].core_layer 	data[2] 	54489
scalar three_caches_scenario_3_links_network.node[2].content_store 	p_hit[2] 	0.23335912768203
scalar three_caches_scenario_3_links_network.node[2].content_store 	hits[2] 	16586
scalar three_caches_scenario_3_links_network.node[2].content_store 	misses[2] 	54489
scalar three_caches_scenario_3_links_network.node[2].content_store 	decision_yes[2] 	6187
scalar three_caches_scenario_3_links_network.node[2].content_store 	decision_no[2] 	48302
scalar three_caches_scenario_3_links_network.node[3].core_layer 	interests[3] 	59709
scalar three_caches_scenario_3_links_network.node[3].core_layer 	data[3] 	58855
scalar three_caches_scenario_3_links_network.node[3].content_store 	p_hit[3] 	0.014302701435295
scalar three_caches_scenario_3_links_network.node[3].content_store 	hits[3] 	854
scalar three_caches_scenario_3_links_network.node[3].content_store 	misses[3] 	58855
scalar three_caches_scenario_3_links_network.node[3].content_store 	decision_yes[3] 	58855
scalar three_caches_scenario_3_links_network.node[3].content_store 	decision_no[3] 	0
scalar three_caches_scenario_3_links_network.node[4].core_layer 	interests[4] 	35907
scalar three_caches_scenario_3_links_network.node[4].core_layer 	repo_load[4] 	35907
scalar three_caches_scenario_3_links_network.node[4].core_layer 	data[4] 	0
scalar three_caches_scenario_3_links_network.node[4].content_store 	p_hit[4] 	0
scalar three_caches_scenario_3_links_network.node[4].content_store 	hits[4] 	0
scalar three_caches_scenario_3_links_network.node[4].content_store 	misses[4] 	35907
scalar three_caches_scenario_3_links_network.node[4].content_store 	decision_yes[4] 	0
scalar three_caches_scenario_3_links_network.node[4].content_store 	decision_no[4] 	35907
scalar three_caches_scenario_3_links_network.node[5].core_layer 	interests[5] 	54489
scalar three_caches_scenario_3_links_network.node[5].core_layer 	repo_load[5] 	54489
scalar three_caches_scenario_3_links_network.node[5].core_layer 	data[5] 	0
scalar three_caches_scenario_3_links_network.node[5].content_store 	p_hit[5] 	0
scalar three_caches_scenario_3_links_network.node[5].content_store 	hits[5] 	0
scalar three_caches_scenario_3_links_network.node[5].content_store 	misses[5] 	54489
scalar three_caches_scenario_3_links_network.node[5].content_store 	decision_yes[5] 	0
scalar three_caches_scenario_3_links_network.node[5].content_store 	decision_no[5] 	54489
scalar three_caches_scenario_3_links_network.node[6].core_layer 	interests[6] 	58855
scalar three_caches_scenario_3_links_network.node[6].core_layer 	repo_load[6] 	58855
scalar three_caches_scenario_3_links_network.node[6].core_layer 	data[6] 	0
scalar three_caches_scenario_3_links_network.node[6].content_store 	p_hit[6] 	0
scalar three_caches_scenario_3_links_network.node[6].content_store 	hits[6] 	0
scalar three_caches_scenario_3_links_network.node[6].content_store 	misses[6] 	58855
scalar three_caches_scenario_3_links_network.node[6].content_store 	decision_yes[6] 	0
scalar three_caches_scenario_3_links_network.node[6].content_store 	decision_no[6] 	58855
scalar three_caches_scenario_3_links_network.client[0] 	hdistance[0] 	2.3868449584387
scalar three_caches_scenario_3_links_network.client[0] 	downloads[0] 	179855
scalar three_caches_scenario_3_links_network.client[0] 	avg_time[0] 	0
scalar three_caches_scenario_3_links_network.client[0] 	interests_sent[0] 	179855
