version 2
run General-1-20140625-11:03:12-10516
attr D fix0.1
attr F nrr
attr R lru
attr a 1
attr configname General
attr csize 1e3
attr ctlg 1e5
attr datetime 20140625-11:03:12
attr experiment General
attr inifile omnetpp.ini
attr iterationvars "$net=abilene_cost, $rep=1, $priceratiovalue=10, $weights=0.333_0.333_0.334, $lambda=100, $a=1, $ctlg=1e5, $F=nrr, $ttl=1000, $D=fix0.1, $xi=1, $R=lru, $csize=1e3, $pricebits=0, $mytime=1800"
attr iterationvars2 "$net=abilene_cost, $rep=1, $priceratiovalue=10, $weights=0.333_0.333_0.334, $lambda=100, $a=1, $ctlg=1e5, $F=nrr, $ttl=1000, $D=fix0.1, $xi=1, $R=lru, $csize=1e3, $pricebits=0, $mytime=1800, $repetition=0"
attr lambda 100
attr measurement "$net=abilene_cost, $rep=1, $priceratiovalue=10, $weights=0.333_0.333_0.334, $lambda=100, $a=1, $ctlg=1e5, $F=nrr, $ttl=1000, $D=fix0.1, $xi=1, $R=lru, $csize=1e3, $pricebits=0, $mytime=1800"
attr mytime 1800
attr net abilene_cost
attr network networks.${net=abilene_cost}_network
attr pricebits 0
attr priceratiovalue 10
attr processid 10516
attr rep 1
attr repetition 0
attr replication #0
attr resultdir results
attr runnumber 1
attr seedset 1
attr ttl 1000
attr weights 0.333_0.333_0.334
attr xi 1

scalar . 	a 	1
scalar . 	csize 	1e3
scalar . 	ctlg 	1e5
scalar . 	lambda 	100
scalar . 	mytime 	1800
scalar . 	pricebits 	0
scalar . 	priceratiovalue 	10
scalar . 	rep 	1
scalar . 	ttl 	1000
scalar . 	xi 	1
scalar abilene_cost_network.content_distribution 	repo-0 	11
scalar abilene_cost_network.content_distribution 	repo-1 	12
scalar abilene_cost_network.content_distribution 	repo-2 	13
scalar abilene_cost_network.content_distribution 	client-0 	5
scalar abilene_cost_network.content_distribution 	client-1 	0
scalar abilene_cost_network.content_distribution 	client-2 	9
scalar abilene_cost_network.content_distribution 	repo-0_card 	33396
scalar abilene_cost_network.content_distribution 	repo-1_card 	33039
scalar abilene_cost_network.content_distribution 	repo-2_card 	33565
scalar abilene_cost_network.statistics 	repo_popularity[0] 	0.28686251265602
scalar abilene_cost_network.statistics 	repo_popularity[1] 	0.2886063426465
scalar abilene_cost_network.statistics 	repo_popularity[2] 	0.42453114469748
scalar abilene_cost_network.statistics 	stabilization_time 	101
scalar abilene_cost_network.node[1].face$o[4].channel 	price[1] 	0
scalar abilene_cost_network.node[1].face$o[4].channel 	represented_price[1] 	0
scalar abilene_cost_network.node[7].face$o[4].channel 	price[7] 	0
scalar abilene_cost_network.node[7].face$o[4].channel 	represented_price[7] 	0
scalar abilene_cost_network.node[10].face$o[4].channel 	price[10] 	0
scalar abilene_cost_network.node[10].face$o[4].channel 	represented_price[10] 	0
scalar abilene_cost_network.node[11].face$o[1].channel 	price[11] 	0
scalar abilene_cost_network.node[11].face$o[1].channel 	represented_price[11] 	0
scalar abilene_cost_network.node[12].face$o[1].channel 	price[12] 	1
scalar abilene_cost_network.node[12].face$o[1].channel 	represented_price[12] 	1
scalar abilene_cost_network.node[13].face$o[1].channel 	price[13] 	10
scalar abilene_cost_network.node[13].face$o[1].channel 	represented_price[13] 	10
scalar abilene_cost_network.statistics 	p_hit 	0.16385812753468
scalar abilene_cost_network.statistics 	interests 	116913.85714286
scalar abilene_cost_network.statistics 	data 	78358.5
scalar abilene_cost_network.statistics 	hdistance 	2.5356824582344
scalar abilene_cost_network.statistics 	avg_time 	0.010042238372
scalar abilene_cost_network.statistics 	downloads 	539589
scalar abilene_cost_network.statistics 	total_cost 	1017487
scalar abilene_cost_network.statistics 	total_replicas 	100000
scalar abilene_cost_network.statistics 	inner_hit 	0.49705238616799
scalar abilene_cost_network.statistics 	interests_sent 	539774
scalar abilene_cost_network.node[0].core_layer 	interests[0] 	184861
scalar abilene_cost_network.node[0].core_layer 	data[0] 	117892
scalar abilene_cost_network.node[0].core_layer 	repo_int[0] 	271385
scalar abilene_cost_network.node[0].content_store 	p_hit[0] 	0.36190434975468
scalar abilene_cost_network.node[0].content_store 	hits[0] 	66902
scalar abilene_cost_network.node[0].content_store 	misses[0] 	117959
scalar abilene_cost_network.node[0].content_store 	decision_yes[0] 	11662
scalar abilene_cost_network.node[0].content_store 	decision_no[0] 	106230
scalar abilene_cost_network.node[0].content_store 	decision_ratio[0] 	0.098921046381434
scalar abilene_cost_network.node[1].core_layer 	interests[1] 	173159
scalar abilene_cost_network.node[1].core_layer 	data[1] 	166655
scalar abilene_cost_network.node[1].content_store 	p_hit[1] 	0.037549304396537
scalar abilene_cost_network.node[1].content_store 	hits[1] 	6502
scalar abilene_cost_network.node[1].content_store 	misses[1] 	166657
scalar abilene_cost_network.node[1].content_store 	decision_yes[1] 	16526
scalar abilene_cost_network.node[1].content_store 	decision_no[1] 	150127
scalar abilene_cost_network.node[1].content_store 	decision_ratio[1] 	0.09916413145878
scalar abilene_cost_network.node[2].core_layer 	interests[2] 	112076
scalar abilene_cost_network.node[2].core_layer 	data[2] 	104386
scalar abilene_cost_network.node[2].content_store 	p_hit[2] 	0.068623077197616
scalar abilene_cost_network.node[2].content_store 	hits[2] 	7691
scalar abilene_cost_network.node[2].content_store 	misses[2] 	104385
scalar abilene_cost_network.node[2].content_store 	decision_yes[2] 	10348
scalar abilene_cost_network.node[2].content_store 	decision_no[2] 	94038
scalar abilene_cost_network.node[2].content_store 	decision_ratio[2] 	0.099132067518633
scalar abilene_cost_network.node[3].core_layer 	interests[3] 	103964
scalar abilene_cost_network.node[3].core_layer 	data[3] 	98372
scalar abilene_cost_network.node[3].content_store 	p_hit[3] 	0.05378784964026
scalar abilene_cost_network.node[3].content_store 	hits[3] 	5592
scalar abilene_cost_network.node[3].content_store 	misses[3] 	98372
scalar abilene_cost_network.node[3].content_store 	decision_yes[3] 	9814
scalar abilene_cost_network.node[3].content_store 	decision_no[3] 	88556
scalar abilene_cost_network.node[3].content_store 	decision_ratio[3] 	0.099766188878723
scalar abilene_cost_network.node[4].core_layer 	interests[4] 	74598
scalar abilene_cost_network.node[4].core_layer 	data[4] 	69288
scalar abilene_cost_network.node[4].content_store 	p_hit[4] 	0.071194938202097
scalar abilene_cost_network.node[4].content_store 	hits[4] 	5311
scalar abilene_cost_network.node[4].content_store 	misses[4] 	69287
scalar abilene_cost_network.node[4].content_store 	decision_yes[4] 	7070
scalar abilene_cost_network.node[4].content_store 	decision_no[4] 	62218
scalar abilene_cost_network.node[4].content_store 	decision_ratio[4] 	0.1020378709156
scalar abilene_cost_network.node[5].core_layer 	interests[5] 	180766
scalar abilene_cost_network.node[5].core_layer 	data[5] 	118610
scalar abilene_cost_network.node[5].content_store 	p_hit[5] 	0.34348273458504
scalar abilene_cost_network.node[5].content_store 	hits[5] 	62090
scalar abilene_cost_network.node[5].content_store 	misses[5] 	118676
scalar abilene_cost_network.node[5].content_store 	decision_yes[5] 	11882
scalar abilene_cost_network.node[5].content_store 	decision_no[5] 	106728
scalar abilene_cost_network.node[5].content_store 	decision_ratio[5] 	0.10017705083888
scalar abilene_cost_network.node[6].core_layer 	interests[6] 	48908
scalar abilene_cost_network.node[6].core_layer 	data[6] 	36832
scalar abilene_cost_network.node[6].content_store 	p_hit[6] 	0.24691257054061
scalar abilene_cost_network.node[6].content_store 	hits[6] 	12076
scalar abilene_cost_network.node[6].content_store 	misses[6] 	36832
scalar abilene_cost_network.node[6].content_store 	decision_yes[6] 	3706
scalar abilene_cost_network.node[6].content_store 	decision_no[6] 	33124
scalar abilene_cost_network.node[6].content_store 	decision_ratio[6] 	0.10062449090415
scalar abilene_cost_network.node[7].core_layer 	interests[7] 	99065
scalar abilene_cost_network.node[7].core_layer 	data[7] 	93407
scalar abilene_cost_network.node[7].content_store 	p_hit[7] 	0.05708373290264
scalar abilene_cost_network.node[7].content_store 	hits[7] 	5655
scalar abilene_cost_network.node[7].content_store 	misses[7] 	93410
scalar abilene_cost_network.node[7].content_store 	decision_yes[7] 	9283
scalar abilene_cost_network.node[7].content_store 	decision_no[7] 	84121
scalar abilene_cost_network.node[7].content_store 	decision_ratio[7] 	0.099385465290566
scalar abilene_cost_network.node[8].core_layer 	interests[8] 	55242
scalar abilene_cost_network.node[8].core_layer 	data[8] 	38887
scalar abilene_cost_network.node[8].content_store 	p_hit[8] 	0.29606096810398
scalar abilene_cost_network.node[8].content_store 	hits[8] 	16355
scalar abilene_cost_network.node[8].content_store 	misses[8] 	38887
scalar abilene_cost_network.node[8].content_store 	decision_yes[8] 	3850
scalar abilene_cost_network.node[8].content_store 	decision_no[8] 	35037
scalar abilene_cost_network.node[8].content_store 	decision_ratio[8] 	0.099004808804999
scalar abilene_cost_network.node[9].core_layer 	interests[9] 	186104
scalar abilene_cost_network.node[9].core_layer 	data[9] 	117845
scalar abilene_cost_network.node[9].content_store 	p_hit[9] 	0.3664993766926
scalar abilene_cost_network.node[9].content_store 	hits[9] 	68207
scalar abilene_cost_network.node[9].content_store 	misses[9] 	117897
scalar abilene_cost_network.node[9].content_store 	decision_yes[9] 	11876
scalar abilene_cost_network.node[9].content_store 	decision_no[9] 	105968
scalar abilene_cost_network.node[9].content_store 	decision_ratio[9] 	0.10077729880181
scalar abilene_cost_network.node[10].core_layer 	interests[10] 	146666
scalar abilene_cost_network.node[10].core_layer 	data[10] 	134845
scalar abilene_cost_network.node[10].content_store 	p_hit[10] 	0.080598093627698
scalar abilene_cost_network.node[10].content_store 	hits[10] 	11821
scalar abilene_cost_network.node[10].content_store 	misses[10] 	134845
scalar abilene_cost_network.node[10].content_store 	decision_yes[10] 	13574
scalar abilene_cost_network.node[10].content_store 	decision_no[10] 	121270
scalar abilene_cost_network.node[10].content_store 	decision_ratio[10] 	0.10066447153748
scalar abilene_cost_network.node[11].core_layer 	interests[11] 	93841
scalar abilene_cost_network.node[11].core_layer 	repo_load[11] 	93841
scalar abilene_cost_network.node[11].core_layer 	data[11] 	0
scalar abilene_cost_network.node[11].content_store 	p_hit[11] 	0
scalar abilene_cost_network.node[11].content_store 	hits[11] 	0
scalar abilene_cost_network.node[11].content_store 	misses[11] 	93841
scalar abilene_cost_network.node[11].content_store 	decision_yes[11] 	0
scalar abilene_cost_network.node[11].content_store 	decision_no[11] 	93841
scalar abilene_cost_network.node[11].content_store 	decision_ratio[11] 	0
scalar abilene_cost_network.node[12].core_layer 	interests[12] 	84217
scalar abilene_cost_network.node[12].core_layer 	repo_load[12] 	84217
scalar abilene_cost_network.node[12].core_layer 	data[12] 	0
scalar abilene_cost_network.node[12].content_store 	p_hit[12] 	0
scalar abilene_cost_network.node[12].content_store 	hits[12] 	0
scalar abilene_cost_network.node[12].content_store 	misses[12] 	84217
scalar abilene_cost_network.node[12].content_store 	decision_yes[12] 	0
scalar abilene_cost_network.node[12].content_store 	decision_no[12] 	84217
scalar abilene_cost_network.node[12].content_store 	decision_ratio[12] 	0
scalar abilene_cost_network.node[13].core_layer 	interests[13] 	93327
scalar abilene_cost_network.node[13].core_layer 	repo_load[13] 	93327
scalar abilene_cost_network.node[13].core_layer 	data[13] 	0
scalar abilene_cost_network.node[13].content_store 	p_hit[13] 	0
scalar abilene_cost_network.node[13].content_store 	hits[13] 	0
scalar abilene_cost_network.node[13].content_store 	misses[13] 	93327
scalar abilene_cost_network.node[13].content_store 	decision_yes[13] 	0
scalar abilene_cost_network.node[13].content_store 	decision_no[13] 	93327
scalar abilene_cost_network.node[13].content_store 	decision_ratio[13] 	0
scalar abilene_cost_network.client[0] 	hdistance[0] 	2.3147693980824
scalar abilene_cost_network.client[0] 	downloads[0] 	180224
scalar abilene_cost_network.client[0] 	avg_time[0] 	0.009720938407
scalar abilene_cost_network.client[0] 	interests_sent[0] 	180291
scalar abilene_cost_network.client[5] 	hdistance[5] 	3.1913923994353
scalar abilene_cost_network.client[5] 	downloads[5] 	179934
scalar abilene_cost_network.client[5] 	avg_time[5] 	0.011677272964
scalar abilene_cost_network.client[5] 	interests_sent[5] 	180000
scalar abilene_cost_network.client[9] 	hdistance[9] 	2.1008855771856
scalar abilene_cost_network.client[9] 	downloads[9] 	179431
scalar abilene_cost_network.client[9] 	avg_time[9] 	0.008728503746
scalar abilene_cost_network.client[9] 	interests_sent[9] 	179483
