version 2
run General-338-20140510-15:53:14-15596
attr D costprobtailsmart0.01
attr F nrr
attr R lru
attr a 1.2
attr configname General
attr csize 1e3
attr ctlg 1e5
attr datetime 20140510-15:53:14
attr experiment General
attr inifile omnetpp.ini
attr iterationvars "$net=one_cache_scenario_3_links, $rep=5, $priceratiovalue=1, $weights=0.333_0.333_0.334, $a=1.2, $ctlg=1e5, $F=nrr, $ttl=1000, $D=costprobtailsmart0.01, $xi=0.75, $R=lru, $csize=1e3"
attr iterationvars2 "$net=one_cache_scenario_3_links, $rep=5, $priceratiovalue=1, $weights=0.333_0.333_0.334, $a=1.2, $ctlg=1e5, $F=nrr, $ttl=1000, $D=costprobtailsmart0.01, $xi=0.75, $R=lru, $csize=1e3, $repetition=0"
attr measurement "$net=one_cache_scenario_3_links, $rep=5, $priceratiovalue=1, $weights=0.333_0.333_0.334, $a=1.2, $ctlg=1e5, $F=nrr, $ttl=1000, $D=costprobtailsmart0.01, $xi=0.75, $R=lru, $csize=1e3"
attr net one_cache_scenario_3_links
attr network networks.${net=one_cache_scenario_3_links}_network
attr priceratiovalue 1
attr processid 15596
attr rep 5
attr repetition 0
attr replication #0
attr resultdir results
attr runnumber 338
attr seedset 5
attr ttl 1000
attr weights 0.333_0.333_0.334
attr xi 0.75

scalar . 	a 	1.2
scalar . 	csize 	1e3
scalar . 	ctlg 	1e5
scalar . 	priceratiovalue 	1
scalar . 	rep 	5
scalar . 	ttl 	1000
scalar . 	xi 	0.75
scalar one_cache_scenario_3_links_network.content_distribution 	repo-0 	4
scalar one_cache_scenario_3_links_network.content_distribution 	repo-1 	5
scalar one_cache_scenario_3_links_network.content_distribution 	repo-2 	6
scalar one_cache_scenario_3_links_network.content_distribution 	client-0 	0
scalar one_cache_scenario_3_links_network.content_distribution 	repo-0_card 	33102
scalar one_cache_scenario_3_links_network.content_distribution 	repo-1_card 	33495
scalar one_cache_scenario_3_links_network.content_distribution 	repo-2_card 	33403
scalar one_cache_scenario_3_links_network.statistics 	p_hit 	0.56124642679959
scalar one_cache_scenario_3_links_network.statistics 	interests 	36282
scalar one_cache_scenario_3_links_network.statistics 	data 	10612.571428571
scalar one_cache_scenario_3_links_network.statistics 	hdistance 	0.41343232082633
scalar one_cache_scenario_3_links_network.statistics 	avg_time 	0
scalar one_cache_scenario_3_links_network.statistics 	downloads 	179686
scalar one_cache_scenario_3_links_network.statistics 	total_cost 	21528
scalar one_cache_scenario_3_links_network.statistics 	total_replicas 	100000
scalar one_cache_scenario_3_links_network.statistics 	interests_sent 	179686
scalar one_cache_scenario_3_links_network.node[0].core_layer 	interests[0] 	179686
scalar one_cache_scenario_3_links_network.node[0].core_layer 	data[0] 	37144
scalar one_cache_scenario_3_links_network.node[0].core_layer 	repo_int[0] 	37144
scalar one_cache_scenario_3_links_network.node[0].content_store 	p_hit[0] 	0.79328383958683
scalar one_cache_scenario_3_links_network.node[0].content_store 	hits[0] 	142542
scalar one_cache_scenario_3_links_network.node[0].content_store 	misses[0] 	37144
scalar one_cache_scenario_3_links_network.node[0].content_store 	decision_yes[0] 	16318
scalar one_cache_scenario_3_links_network.node[0].content_store 	decision_no[0] 	20826
scalar one_cache_scenario_3_links_network.node[0].content_store 	decision_ratio[0] 	0.43931725177687
scalar one_cache_scenario_3_links_network.node[0].content_store 	correction_factor[0] 	1.5981569113703e-316
scalar one_cache_scenario_3_links_network.node[0].content_store 	xi[0] 	0.75
scalar one_cache_scenario_3_links_network.node[1].core_layer 	interests[1] 	15616
scalar one_cache_scenario_3_links_network.node[1].core_layer 	data[1] 	15616
scalar one_cache_scenario_3_links_network.node[1].content_store 	p_hit[1] 	0
scalar one_cache_scenario_3_links_network.node[1].content_store 	hits[1] 	0
scalar one_cache_scenario_3_links_network.node[1].content_store 	misses[1] 	15616
scalar one_cache_scenario_3_links_network.node[1].content_store 	decision_yes[1] 	0
scalar one_cache_scenario_3_links_network.node[1].content_store 	decision_no[1] 	15616
scalar one_cache_scenario_3_links_network.node[1].content_store 	decision_ratio[1] 	0
scalar one_cache_scenario_3_links_network.node[2].core_layer 	interests[2] 	10716
scalar one_cache_scenario_3_links_network.node[2].core_layer 	data[2] 	10716
scalar one_cache_scenario_3_links_network.node[2].content_store 	p_hit[2] 	0
scalar one_cache_scenario_3_links_network.node[2].content_store 	hits[2] 	0
scalar one_cache_scenario_3_links_network.node[2].content_store 	misses[2] 	10716
scalar one_cache_scenario_3_links_network.node[2].content_store 	decision_yes[2] 	0
scalar one_cache_scenario_3_links_network.node[2].content_store 	decision_no[2] 	10716
scalar one_cache_scenario_3_links_network.node[2].content_store 	decision_ratio[2] 	0
scalar one_cache_scenario_3_links_network.node[3].core_layer 	interests[3] 	10812
scalar one_cache_scenario_3_links_network.node[3].core_layer 	data[3] 	10812
scalar one_cache_scenario_3_links_network.node[3].content_store 	p_hit[3] 	0
scalar one_cache_scenario_3_links_network.node[3].content_store 	hits[3] 	0
scalar one_cache_scenario_3_links_network.node[3].content_store 	misses[3] 	10812
scalar one_cache_scenario_3_links_network.node[3].content_store 	decision_yes[3] 	0
scalar one_cache_scenario_3_links_network.node[3].content_store 	decision_no[3] 	10812
scalar one_cache_scenario_3_links_network.node[3].content_store 	decision_ratio[3] 	0
scalar one_cache_scenario_3_links_network.node[4].core_layer 	interests[4] 	15616
scalar one_cache_scenario_3_links_network.node[4].core_layer 	repo_load[4] 	15616
scalar one_cache_scenario_3_links_network.node[4].core_layer 	data[4] 	0
scalar one_cache_scenario_3_links_network.node[4].content_store 	p_hit[4] 	0
scalar one_cache_scenario_3_links_network.node[4].content_store 	hits[4] 	0
scalar one_cache_scenario_3_links_network.node[4].content_store 	misses[4] 	15616
scalar one_cache_scenario_3_links_network.node[4].content_store 	decision_yes[4] 	0
scalar one_cache_scenario_3_links_network.node[4].content_store 	decision_no[4] 	15616
scalar one_cache_scenario_3_links_network.node[4].content_store 	decision_ratio[4] 	0
scalar one_cache_scenario_3_links_network.node[5].core_layer 	interests[5] 	10716
scalar one_cache_scenario_3_links_network.node[5].core_layer 	repo_load[5] 	10716
scalar one_cache_scenario_3_links_network.node[5].core_layer 	data[5] 	0
scalar one_cache_scenario_3_links_network.node[5].content_store 	p_hit[5] 	0
scalar one_cache_scenario_3_links_network.node[5].content_store 	hits[5] 	0
scalar one_cache_scenario_3_links_network.node[5].content_store 	misses[5] 	10716
scalar one_cache_scenario_3_links_network.node[5].content_store 	decision_yes[5] 	0
scalar one_cache_scenario_3_links_network.node[5].content_store 	decision_no[5] 	10716
scalar one_cache_scenario_3_links_network.node[5].content_store 	decision_ratio[5] 	0
scalar one_cache_scenario_3_links_network.node[6].core_layer 	interests[6] 	10812
scalar one_cache_scenario_3_links_network.node[6].core_layer 	repo_load[6] 	10812
scalar one_cache_scenario_3_links_network.node[6].core_layer 	data[6] 	0
scalar one_cache_scenario_3_links_network.node[6].content_store 	p_hit[6] 	0
scalar one_cache_scenario_3_links_network.node[6].content_store 	hits[6] 	0
scalar one_cache_scenario_3_links_network.node[6].content_store 	misses[6] 	10812
scalar one_cache_scenario_3_links_network.node[6].content_store 	decision_yes[6] 	0
scalar one_cache_scenario_3_links_network.node[6].content_store 	decision_no[6] 	10812
scalar one_cache_scenario_3_links_network.node[6].content_store 	decision_ratio[6] 	0
scalar one_cache_scenario_3_links_network.client[0] 	hdistance[0] 	0.41343232082633
scalar one_cache_scenario_3_links_network.client[0] 	downloads[0] 	179686
scalar one_cache_scenario_3_links_network.client[0] 	avg_time[0] 	0
scalar one_cache_scenario_3_links_network.client[0] 	interests_sent[0] 	179686
