version 2
run General-17-20140625-19:34:08-12864
attr D costprobprodcorr0.01
attr F spr
attr R lru
attr a 1
attr configname General
attr csize 1e3
attr ctlg 1e5
attr datetime 20140625-19:34:08
attr experiment General
attr inifile omnetpp.ini
attr iterationvars "$net=abilene_cost, $rep=1, $priceratiovalue=10, $weights=0.333_0.333_0.334, $lambda=100, $a=1, $ctlg=1e5, $F=spr, $ttl=1000, $D=costprobprodcorr0.01, $xi=1.25, $R=lru, $csize=1e3, $pricebits=0, $mytime=1800"
attr iterationvars2 "$net=abilene_cost, $rep=1, $priceratiovalue=10, $weights=0.333_0.333_0.334, $lambda=100, $a=1, $ctlg=1e5, $F=spr, $ttl=1000, $D=costprobprodcorr0.01, $xi=1.25, $R=lru, $csize=1e3, $pricebits=0, $mytime=1800, $repetition=0"
attr lambda 100
attr measurement "$net=abilene_cost, $rep=1, $priceratiovalue=10, $weights=0.333_0.333_0.334, $lambda=100, $a=1, $ctlg=1e5, $F=spr, $ttl=1000, $D=costprobprodcorr0.01, $xi=1.25, $R=lru, $csize=1e3, $pricebits=0, $mytime=1800"
attr mytime 1800
attr net abilene_cost
attr network "networks.${net=geant_cost, abilene_cost}_network"
attr pricebits 0
attr priceratiovalue 10
attr processid 12864
attr rep 1
attr repetition 0
attr replication #0
attr resultdir results
attr runnumber 17
attr seedset 1
attr ttl 1000
attr weights 0.333_0.333_0.334
attr xi 1.25

scalar . 	a 	1
scalar . 	csize 	1e3
scalar . 	ctlg 	1e5
scalar . 	lambda 	100
scalar . 	mytime 	1800
scalar . 	pricebits 	0
scalar . 	priceratiovalue 	10
scalar . 	rep 	1
scalar . 	ttl 	1000
scalar . 	xi 	1.25
scalar abilene_cost_network.content_distribution 	repo-0 	11
scalar abilene_cost_network.content_distribution 	repo-1 	12
scalar abilene_cost_network.content_distribution 	repo-2 	13
scalar abilene_cost_network.content_distribution 	client-0 	5
scalar abilene_cost_network.content_distribution 	client-1 	0
scalar abilene_cost_network.content_distribution 	client-2 	9
scalar abilene_cost_network.content_distribution 	repo-0_card 	33396
scalar abilene_cost_network.content_distribution 	repo-1_card 	33039
scalar abilene_cost_network.content_distribution 	repo-2_card 	33565
scalar abilene_cost_network.statistics 	repo_popularity[0] 	0.28686251265602
scalar abilene_cost_network.statistics 	repo_popularity[1] 	0.2886063426465
scalar abilene_cost_network.statistics 	repo_popularity[2] 	0.42453114469748
scalar abilene_cost_network.statistics 	stabilization_time 	3286.6
scalar abilene_cost_network.node[1].face$o[4].channel 	price[1] 	0
scalar abilene_cost_network.node[1].face$o[4].channel 	represented_price[1] 	0
scalar abilene_cost_network.node[7].face$o[4].channel 	price[7] 	0
scalar abilene_cost_network.node[7].face$o[4].channel 	represented_price[7] 	0
scalar abilene_cost_network.node[10].face$o[4].channel 	price[10] 	0
scalar abilene_cost_network.node[10].face$o[4].channel 	represented_price[10] 	0
scalar abilene_cost_network.node[11].face$o[1].channel 	price[11] 	0
scalar abilene_cost_network.node[11].face$o[1].channel 	represented_price[11] 	0
scalar abilene_cost_network.node[12].face$o[1].channel 	price[12] 	1
scalar abilene_cost_network.node[12].face$o[1].channel 	represented_price[12] 	1
scalar abilene_cost_network.node[13].face$o[1].channel 	price[13] 	10
scalar abilene_cost_network.node[13].face$o[1].channel 	represented_price[13] 	10
scalar abilene_cost_network.statistics 	p_hit 	0.10417952314165
scalar abilene_cost_network.statistics 	interests 	142600
scalar abilene_cost_network.statistics 	data 	103913
scalar abilene_cost_network.statistics 	hdistance 	3.3383361349375
scalar abilene_cost_network.statistics 	avg_time 	0.013503031243
scalar abilene_cost_network.statistics 	downloads 	534395
scalar abilene_cost_network.statistics 	total_cost 	948366
scalar abilene_cost_network.statistics 	total_replicas 	100000
scalar abilene_cost_network.statistics 	inner_hit 	0.38919525818917
scalar abilene_cost_network.statistics 	interests_sent 	541622
scalar abilene_cost_network.node[0].core_layer 	interests[0] 	180745
scalar abilene_cost_network.node[0].core_layer 	data[0] 	158490
scalar abilene_cost_network.node[0].core_layer 	repo_int[0] 	326411
scalar abilene_cost_network.node[0].content_store 	p_hit[0] 	0.11251763534261
scalar abilene_cost_network.node[0].content_store 	hits[0] 	20337
scalar abilene_cost_network.node[0].content_store 	misses[0] 	160408
scalar abilene_cost_network.node[0].content_store 	decision_yes[0] 	957
scalar abilene_cost_network.node[0].content_store 	decision_no[0] 	157533
scalar abilene_cost_network.node[0].content_store 	decision_ratio[0] 	0.0060382358508423
scalar abilene_cost_network.node[0].content_store 	correction_factor[0] 	0.0015942725492031
scalar abilene_cost_network.node[0].content_store 	xi[0] 	1.25
scalar abilene_cost_network.node[1].core_layer 	interests[1] 	252510
scalar abilene_cost_network.node[1].core_layer 	data[1] 	185517
scalar abilene_cost_network.node[1].content_store 	p_hit[1] 	0.2653122648608
scalar abilene_cost_network.node[1].content_store 	hits[1] 	66994
scalar abilene_cost_network.node[1].content_store 	misses[1] 	185516
scalar abilene_cost_network.node[1].content_store 	decision_yes[1] 	2465
scalar abilene_cost_network.node[1].content_store 	decision_no[1] 	183052
scalar abilene_cost_network.node[1].content_store 	decision_ratio[1] 	0.013287192009358
scalar abilene_cost_network.node[1].content_store 	correction_factor[1] 	0.0015942725492031
scalar abilene_cost_network.node[1].content_store 	xi[1] 	1.25
scalar abilene_cost_network.node[2].core_layer 	interests[2] 	155322
scalar abilene_cost_network.node[2].core_layer 	data[2] 	141660
scalar abilene_cost_network.node[2].content_store 	p_hit[2] 	0.087965645562123
scalar abilene_cost_network.node[2].content_store 	hits[2] 	13663
scalar abilene_cost_network.node[2].content_store 	misses[2] 	141659
scalar abilene_cost_network.node[2].content_store 	decision_yes[2] 	795
scalar abilene_cost_network.node[2].content_store 	decision_no[2] 	140865
scalar abilene_cost_network.node[2].content_store 	decision_ratio[2] 	0.0056120288013554
scalar abilene_cost_network.node[2].content_store 	correction_factor[2] 	0.0015942725492031
scalar abilene_cost_network.node[2].content_store 	xi[2] 	1.25
scalar abilene_cost_network.node[3].core_layer 	interests[3] 	162103
scalar abilene_cost_network.node[3].core_layer 	data[3] 	148203
scalar abilene_cost_network.node[3].content_store 	p_hit[3] 	0.085754119294523
scalar abilene_cost_network.node[3].content_store 	hits[3] 	13901
scalar abilene_cost_network.node[3].content_store 	misses[3] 	148202
scalar abilene_cost_network.node[3].content_store 	decision_yes[3] 	820
scalar abilene_cost_network.node[3].content_store 	decision_no[3] 	147383
scalar abilene_cost_network.node[3].content_store 	decision_ratio[3] 	0.005532951424735
scalar abilene_cost_network.node[3].content_store 	correction_factor[3] 	0.0015942725492031
scalar abilene_cost_network.node[3].content_store 	xi[3] 	1.25
scalar abilene_cost_network.node[4].core_layer 	interests[4] 	120507
scalar abilene_cost_network.node[4].core_layer 	data[4] 	116690
scalar abilene_cost_network.node[4].content_store 	p_hit[4] 	0.031682806807903
scalar abilene_cost_network.node[4].content_store 	hits[4] 	3818
scalar abilene_cost_network.node[4].content_store 	misses[4] 	116689
scalar abilene_cost_network.node[4].content_store 	decision_yes[4] 	793
scalar abilene_cost_network.node[4].content_store 	decision_no[4] 	115897
scalar abilene_cost_network.node[4].content_store 	decision_ratio[4] 	0.0067957837004028
scalar abilene_cost_network.node[4].content_store 	correction_factor[4] 	0.0015942725492031
scalar abilene_cost_network.node[4].content_store 	xi[4] 	1.25
scalar abilene_cost_network.node[5].core_layer 	interests[5] 	179710
scalar abilene_cost_network.node[5].core_layer 	data[5] 	166966
scalar abilene_cost_network.node[5].content_store 	p_hit[5] 	0.053018752434478
scalar abilene_cost_network.node[5].content_store 	hits[5] 	9528
scalar abilene_cost_network.node[5].content_store 	misses[5] 	170182
scalar abilene_cost_network.node[5].content_store 	decision_yes[5] 	798
scalar abilene_cost_network.node[5].content_store 	decision_no[5] 	166168
scalar abilene_cost_network.node[5].content_store 	decision_ratio[5] 	0.0047794161685613
scalar abilene_cost_network.node[5].content_store 	correction_factor[5] 	0.0015942725492031
scalar abilene_cost_network.node[5].content_store 	xi[5] 	1.25
scalar abilene_cost_network.node[6].core_layer 	interests[6] 	46459
scalar abilene_cost_network.node[6].core_layer 	data[6] 	39226
scalar abilene_cost_network.node[6].content_store 	p_hit[6] 	0.15568565832239
scalar abilene_cost_network.node[6].content_store 	hits[6] 	7233
scalar abilene_cost_network.node[6].content_store 	misses[6] 	39226
scalar abilene_cost_network.node[6].content_store 	decision_yes[6] 	50
scalar abilene_cost_network.node[6].content_store 	decision_no[6] 	39176
scalar abilene_cost_network.node[6].content_store 	decision_ratio[6] 	0.0012746647631673
scalar abilene_cost_network.node[6].content_store 	correction_factor[6] 	0.0015942725492031
scalar abilene_cost_network.node[6].content_store 	xi[6] 	1.25
scalar abilene_cost_network.node[7].core_layer 	interests[7] 	122845
scalar abilene_cost_network.node[7].core_layer 	data[7] 	85266
scalar abilene_cost_network.node[7].content_store 	p_hit[7] 	0.30590581627254
scalar abilene_cost_network.node[7].content_store 	hits[7] 	37579
scalar abilene_cost_network.node[7].content_store 	misses[7] 	85266
scalar abilene_cost_network.node[7].content_store 	decision_yes[7] 	150
scalar abilene_cost_network.node[7].content_store 	decision_no[7] 	85116
scalar abilene_cost_network.node[7].content_store 	decision_ratio[7] 	0.0017592006192386
scalar abilene_cost_network.node[7].content_store 	correction_factor[7] 	0.0015942725492031
scalar abilene_cost_network.node[7].content_store 	xi[7] 	1.25
scalar abilene_cost_network.node[8].core_layer 	interests[8] 	48092
scalar abilene_cost_network.node[8].core_layer 	data[8] 	42495
scalar abilene_cost_network.node[8].content_store 	p_hit[8] 	0.11638110288613
scalar abilene_cost_network.node[8].content_store 	hits[8] 	5597
scalar abilene_cost_network.node[8].content_store 	misses[8] 	42495
scalar abilene_cost_network.node[8].content_store 	decision_yes[8] 	39
scalar abilene_cost_network.node[8].content_store 	decision_no[8] 	42456
scalar abilene_cost_network.node[8].content_store 	decision_ratio[8] 	0.00091775503000353
scalar abilene_cost_network.node[8].content_store 	correction_factor[8] 	0.0015942725492031
scalar abilene_cost_network.node[8].content_store 	xi[8] 	1.25
scalar abilene_cost_network.node[9].core_layer 	interests[9] 	181167
scalar abilene_cost_network.node[9].core_layer 	data[9] 	165744
scalar abilene_cost_network.node[9].content_store 	p_hit[9] 	0.073578521474661
scalar abilene_cost_network.node[9].content_store 	hits[9] 	13330
scalar abilene_cost_network.node[9].content_store 	misses[9] 	167837
scalar abilene_cost_network.node[9].content_store 	decision_yes[9] 	837
scalar abilene_cost_network.node[9].content_store 	decision_no[9] 	164907
scalar abilene_cost_network.node[9].content_store 	decision_ratio[9] 	0.0050499565595135
scalar abilene_cost_network.node[9].content_store 	correction_factor[9] 	0.0015942725492031
scalar abilene_cost_network.node[9].content_store 	xi[9] 	1.25
scalar abilene_cost_network.node[10].core_layer 	interests[10] 	220529
scalar abilene_cost_network.node[10].core_layer 	data[10] 	204525
scalar abilene_cost_network.node[10].content_store 	p_hit[10] 	0.072570954386951
scalar abilene_cost_network.node[10].content_store 	hits[10] 	16004
scalar abilene_cost_network.node[10].content_store 	misses[10] 	204525
scalar abilene_cost_network.node[10].content_store 	decision_yes[10] 	856
scalar abilene_cost_network.node[10].content_store 	decision_no[10] 	203669
scalar abilene_cost_network.node[10].content_store 	decision_ratio[10] 	0.0041853074196309
scalar abilene_cost_network.node[10].content_store 	correction_factor[10] 	0.0015942725492031
scalar abilene_cost_network.node[10].content_store 	xi[10] 	1.25
scalar abilene_cost_network.node[11].core_layer 	interests[11] 	154835
scalar abilene_cost_network.node[11].core_layer 	repo_load[11] 	154835
scalar abilene_cost_network.node[11].core_layer 	data[11] 	0
scalar abilene_cost_network.node[11].content_store 	p_hit[11] 	0
scalar abilene_cost_network.node[11].content_store 	hits[11] 	0
scalar abilene_cost_network.node[11].content_store 	misses[11] 	154835
scalar abilene_cost_network.node[11].content_store 	decision_yes[11] 	0
scalar abilene_cost_network.node[11].content_store 	decision_no[11] 	154835
scalar abilene_cost_network.node[11].content_store 	decision_ratio[11] 	0
scalar abilene_cost_network.node[12].core_layer 	interests[12] 	85266
scalar abilene_cost_network.node[12].core_layer 	repo_load[12] 	85266
scalar abilene_cost_network.node[12].core_layer 	data[12] 	0
scalar abilene_cost_network.node[12].content_store 	p_hit[12] 	0
scalar abilene_cost_network.node[12].content_store 	hits[12] 	0
scalar abilene_cost_network.node[12].content_store 	misses[12] 	85266
scalar abilene_cost_network.node[12].content_store 	decision_yes[12] 	0
scalar abilene_cost_network.node[12].content_store 	decision_no[12] 	85266
scalar abilene_cost_network.node[12].content_store 	decision_ratio[12] 	0
scalar abilene_cost_network.node[13].core_layer 	interests[13] 	86310
scalar abilene_cost_network.node[13].core_layer 	repo_load[13] 	86310
scalar abilene_cost_network.node[13].core_layer 	data[13] 	0
scalar abilene_cost_network.node[13].content_store 	p_hit[13] 	0
scalar abilene_cost_network.node[13].content_store 	hits[13] 	0
scalar abilene_cost_network.node[13].content_store 	misses[13] 	86310
scalar abilene_cost_network.node[13].content_store 	decision_yes[13] 	0
scalar abilene_cost_network.node[13].content_store 	decision_no[13] 	86310
scalar abilene_cost_network.node[13].content_store 	decision_ratio[13] 	0
scalar abilene_cost_network.client[0] 	hdistance[0] 	2.8886968970009
scalar abilene_cost_network.client[0] 	downloads[0] 	178827
scalar abilene_cost_network.client[0] 	avg_time[0] 	0.012585220665
scalar abilene_cost_network.client[0] 	interests_sent[0] 	180745
scalar abilene_cost_network.client[5] 	hdistance[5] 	4.4674833138804
scalar abilene_cost_network.client[5] 	downloads[5] 	176494
scalar abilene_cost_network.client[5] 	avg_time[5] 	0.017229702515
scalar abilene_cost_network.client[5] 	interests_sent[5] 	179710
scalar abilene_cost_network.client[9] 	hdistance[9] 	2.658828193931
scalar abilene_cost_network.client[9] 	downloads[9] 	179074
scalar abilene_cost_network.client[9] 	avg_time[9] 	0.010694170551
scalar abilene_cost_network.client[9] 	interests_sent[9] 	181167
