version 2
run General-816-20140502-02:37:29-9715
attr D costprob0.1
attr F nrr
attr R lru
attr a 1.2
attr configname General
attr csize 1e3
attr ctlg 1e5
attr datetime 20140502-02:37:29
attr experiment General
attr inifile omnetpp.ini
attr iterationvars "$net=three_caches_scenario_3_links, $rep=2, $priceratiovalue=2, $weights=0.7_0.15_0.15, $a=1.2, $ctlg=1e5, $F=nrr, $ttl=1000, $D=costprob0.1, $xi=1, $R=lru, $csize=1e3"
attr iterationvars2 "$net=three_caches_scenario_3_links, $rep=2, $priceratiovalue=2, $weights=0.7_0.15_0.15, $a=1.2, $ctlg=1e5, $F=nrr, $ttl=1000, $D=costprob0.1, $xi=1, $R=lru, $csize=1e3, $repetition=0"
attr measurement "$net=three_caches_scenario_3_links, $rep=2, $priceratiovalue=2, $weights=0.7_0.15_0.15, $a=1.2, $ctlg=1e5, $F=nrr, $ttl=1000, $D=costprob0.1, $xi=1, $R=lru, $csize=1e3"
attr net three_caches_scenario_3_links
attr network networks.${net=three_caches_scenario_3_links}_network
attr priceratiovalue 2
attr processid 9715
attr rep 2
attr repetition 0
attr replication #0
attr resultdir results
attr runnumber 816
attr seedset 2
attr ttl 1000
attr weights 0.7_0.15_0.15
attr xi 1

scalar . 	a 	1.2
scalar . 	csize 	1e3
scalar . 	ctlg 	1e5
scalar . 	priceratiovalue 	2
scalar . 	rep 	2
scalar . 	ttl 	1000
scalar . 	xi 	1
scalar three_caches_scenario_3_links_network.content_distribution 	repo-0 	4
scalar three_caches_scenario_3_links_network.content_distribution 	repo-1 	5
scalar three_caches_scenario_3_links_network.content_distribution 	repo-2 	6
scalar three_caches_scenario_3_links_network.content_distribution 	client-0 	0
scalar three_caches_scenario_3_links_network.content_distribution 	repo-0_card 	69917
scalar three_caches_scenario_3_links_network.content_distribution 	repo-1_card 	15037
scalar three_caches_scenario_3_links_network.content_distribution 	repo-2_card 	15046
scalar three_caches_scenario_3_links_network.statistics 	p_hit 	0.089655115055214
scalar three_caches_scenario_3_links_network.statistics 	interests 	68706.142857143
scalar three_caches_scenario_3_links_network.statistics 	data 	42960.428571429
scalar three_caches_scenario_3_links_network.statistics 	hdistance 	1.7099988902453
scalar three_caches_scenario_3_links_network.statistics 	avg_time 	0
scalar three_caches_scenario_3_links_network.statistics 	downloads 	180220
scalar three_caches_scenario_3_links_network.statistics 	total_cost 	11114
scalar three_caches_scenario_3_links_network.statistics 	total_replicas 	100000
scalar three_caches_scenario_3_links_network.statistics 	interests_sent 	180220
scalar three_caches_scenario_3_links_network.node[0].core_layer 	interests[0] 	180220
scalar three_caches_scenario_3_links_network.node[0].core_layer 	data[0] 	163622
scalar three_caches_scenario_3_links_network.node[0].core_layer 	repo_int[0] 	137101
scalar three_caches_scenario_3_links_network.node[0].content_store 	p_hit[0] 	0.092098546221285
scalar three_caches_scenario_3_links_network.node[0].content_store 	hits[0] 	16598
scalar three_caches_scenario_3_links_network.node[0].content_store 	misses[0] 	163622
scalar three_caches_scenario_3_links_network.node[0].content_store 	decision_yes[0] 	2473
scalar three_caches_scenario_3_links_network.node[0].content_store 	decision_no[0] 	161149
scalar three_caches_scenario_3_links_network.node[1].core_layer 	interests[1] 	129648
scalar three_caches_scenario_3_links_network.node[1].core_layer 	data[1] 	129648
scalar three_caches_scenario_3_links_network.node[1].content_store 	p_hit[1] 	0
scalar three_caches_scenario_3_links_network.node[1].content_store 	hits[1] 	0
scalar three_caches_scenario_3_links_network.node[1].content_store 	misses[1] 	129648
scalar three_caches_scenario_3_links_network.node[1].content_store 	decision_yes[1] 	0
scalar three_caches_scenario_3_links_network.node[1].content_store 	decision_no[1] 	129648
scalar three_caches_scenario_3_links_network.node[2].core_layer 	interests[2] 	16073
scalar three_caches_scenario_3_links_network.node[2].core_layer 	data[2] 	3792
scalar three_caches_scenario_3_links_network.node[2].content_store 	p_hit[2] 	0.76407640141853
scalar three_caches_scenario_3_links_network.node[2].content_store 	hits[2] 	12281
scalar three_caches_scenario_3_links_network.node[2].content_store 	misses[2] 	3792
scalar three_caches_scenario_3_links_network.node[2].content_store 	decision_yes[2] 	886
scalar three_caches_scenario_3_links_network.node[2].content_store 	decision_no[2] 	2906
scalar three_caches_scenario_3_links_network.node[3].core_layer 	interests[3] 	17901
scalar three_caches_scenario_3_links_network.node[3].core_layer 	data[3] 	3661
scalar three_caches_scenario_3_links_network.node[3].content_store 	p_hit[3] 	0.79548628568236
scalar three_caches_scenario_3_links_network.node[3].content_store 	hits[3] 	14240
scalar three_caches_scenario_3_links_network.node[3].content_store 	misses[3] 	3661
scalar three_caches_scenario_3_links_network.node[3].content_store 	decision_yes[3] 	1656
scalar three_caches_scenario_3_links_network.node[3].content_store 	decision_no[3] 	2005
scalar three_caches_scenario_3_links_network.node[4].core_layer 	interests[4] 	129648
scalar three_caches_scenario_3_links_network.node[4].core_layer 	repo_load[4] 	129648
scalar three_caches_scenario_3_links_network.node[4].core_layer 	data[4] 	0
scalar three_caches_scenario_3_links_network.node[4].content_store 	p_hit[4] 	0
scalar three_caches_scenario_3_links_network.node[4].content_store 	hits[4] 	0
scalar three_caches_scenario_3_links_network.node[4].content_store 	misses[4] 	129648
scalar three_caches_scenario_3_links_network.node[4].content_store 	decision_yes[4] 	0
scalar three_caches_scenario_3_links_network.node[4].content_store 	decision_no[4] 	129648
scalar three_caches_scenario_3_links_network.node[5].core_layer 	interests[5] 	3792
scalar three_caches_scenario_3_links_network.node[5].core_layer 	repo_load[5] 	3792
scalar three_caches_scenario_3_links_network.node[5].core_layer 	data[5] 	0
scalar three_caches_scenario_3_links_network.node[5].content_store 	p_hit[5] 	0
scalar three_caches_scenario_3_links_network.node[5].content_store 	hits[5] 	0
scalar three_caches_scenario_3_links_network.node[5].content_store 	misses[5] 	3792
scalar three_caches_scenario_3_links_network.node[5].content_store 	decision_yes[5] 	0
scalar three_caches_scenario_3_links_network.node[5].content_store 	decision_no[5] 	3792
scalar three_caches_scenario_3_links_network.node[6].core_layer 	interests[6] 	3661
scalar three_caches_scenario_3_links_network.node[6].core_layer 	repo_load[6] 	3661
scalar three_caches_scenario_3_links_network.node[6].core_layer 	data[6] 	0
scalar three_caches_scenario_3_links_network.node[6].content_store 	p_hit[6] 	0
scalar three_caches_scenario_3_links_network.node[6].content_store 	hits[6] 	0
scalar three_caches_scenario_3_links_network.node[6].content_store 	misses[6] 	3661
scalar three_caches_scenario_3_links_network.node[6].content_store 	decision_yes[6] 	0
scalar three_caches_scenario_3_links_network.node[6].content_store 	decision_no[6] 	3661
scalar three_caches_scenario_3_links_network.client[0] 	hdistance[0] 	1.7099988902453
scalar three_caches_scenario_3_links_network.client[0] 	downloads[0] 	180220
scalar three_caches_scenario_3_links_network.client[0] 	avg_time[0] 	0
scalar three_caches_scenario_3_links_network.client[0] 	interests_sent[0] 	180220
