version 2
run General-5833-20140423-20:59:20-625
attr D lce
attr F nrr
attr R lru
attr a 0
attr configname General
attr csize 2
attr ctlg 10^3
attr datetime 20140423-20:59:20
attr experiment General
attr inifile omnetpp.ini
attr iterationvars "$net=simple_scenario, $rep=17, $priceratiovalue=3, $a=0, $ctlg=10^3, $F=nrr, $ttl=1000, $D=lce, $R=lru, $csize=2"
attr iterationvars2 "$net=simple_scenario, $rep=17, $priceratiovalue=3, $a=0, $ctlg=10^3, $F=nrr, $ttl=1000, $D=lce, $R=lru, $csize=2, $repetition=0"
attr measurement "$net=simple_scenario, $rep=17, $priceratiovalue=3, $a=0, $ctlg=10^3, $F=nrr, $ttl=1000, $D=lce, $R=lru, $csize=2"
attr net simple_scenario
attr network networks.${net=simple_scenario}_network
attr priceratiovalue 3
attr processid 625
attr rep 17
attr repetition 0
attr replication #0
attr resultdir results
attr runnumber 5833
attr seedset 17
attr ttl 1000

scalar . 	a 	0
scalar . 	csize 	2
scalar . 	priceratiovalue 	3
scalar . 	rep 	17
scalar . 	ttl 	1000
scalar simple_scenario_network.content_distribution 	repo-0 	3
scalar simple_scenario_network.content_distribution 	repo-1 	4
scalar simple_scenario_network.content_distribution 	client-0 	0
scalar simple_scenario_network.content_distribution 	repo-0_card 	481
scalar simple_scenario_network.content_distribution 	repo-1_card 	519
scalar simple_scenario_network.statistics 	p_hit 	0.0012823777141338
scalar simple_scenario_network.statistics 	interests 	107612.6
scalar simple_scenario_network.statistics 	data 	71672.6
scalar simple_scenario_network.statistics 	hdistance 	2.9903895381192
scalar simple_scenario_network.statistics 	avg_time 	0.001999755057
scalar simple_scenario_network.statistics 	downloads 	179700
scalar simple_scenario_network.statistics 	total_cost 	91115
scalar simple_scenario_network.node[0].core_layer 	interests[0] 	179700
scalar simple_scenario_network.node[0].core_layer 	data[0] 	179353
scalar simple_scenario_network.node[0].core_layer 	repo_int[0] 	179010
scalar simple_scenario_network.node[0].content_store 	p_hit[0] 	0.0019309961046188
scalar simple_scenario_network.node[0].content_store 	hits[0] 	347
scalar simple_scenario_network.node[0].content_store 	misses[0] 	179353
scalar simple_scenario_network.node[1].core_layer 	interests[1] 	86467
scalar simple_scenario_network.node[1].core_layer 	data[1] 	86283
scalar simple_scenario_network.node[1].content_store 	p_hit[1] 	0.0021279794603722
scalar simple_scenario_network.node[1].content_store 	hits[1] 	184
scalar simple_scenario_network.node[1].content_store 	misses[1] 	86283
scalar simple_scenario_network.node[2].core_layer 	interests[2] 	92886
scalar simple_scenario_network.node[2].core_layer 	data[2] 	92727
scalar simple_scenario_network.node[2].content_store 	p_hit[2] 	0.0017117757250824
scalar simple_scenario_network.node[2].content_store 	hits[2] 	159
scalar simple_scenario_network.node[2].content_store 	misses[2] 	92727
scalar simple_scenario_network.node[3].core_layer 	interests[3] 	86283
scalar simple_scenario_network.node[3].core_layer 	repo_load[3] 	86283
scalar simple_scenario_network.node[3].core_layer 	data[3] 	0
scalar simple_scenario_network.node[3].content_store 	p_hit[3] 	0
scalar simple_scenario_network.node[3].content_store 	hits[3] 	0
scalar simple_scenario_network.node[3].content_store 	misses[3] 	86283
scalar simple_scenario_network.node[4].core_layer 	interests[4] 	92727
scalar simple_scenario_network.node[4].core_layer 	repo_load[4] 	92727
scalar simple_scenario_network.node[4].core_layer 	data[4] 	0
scalar simple_scenario_network.node[4].content_store 	p_hit[4] 	0
scalar simple_scenario_network.node[4].content_store 	hits[4] 	0
scalar simple_scenario_network.node[4].content_store 	misses[4] 	92727
scalar simple_scenario_network.client[0] 	hdistance[0] 	2.9903895381192
scalar simple_scenario_network.client[0] 	downloads[0] 	179700
scalar simple_scenario_network.client[0] 	avg_time[0] 	0.001999755057
