version 2
run General-40-20140424-15:51:49-16231
attr D fix1
attr F nrr
attr R lru
attr a 1.2
attr configname General
attr csize 10
attr ctlg 10^3
attr datetime 20140424-15:51:49
attr experiment General
attr inifile omnetpp.ini
attr iterationvars "$net=simple_scenario, $rep=1, $priceratiovalue=7, $a=1.2, $ctlg=10^3, $F=nrr, $ttl=1000, $D=fix1, $R=lru, $csize=10"
attr iterationvars2 "$net=simple_scenario, $rep=1, $priceratiovalue=7, $a=1.2, $ctlg=10^3, $F=nrr, $ttl=1000, $D=fix1, $R=lru, $csize=10, $repetition=0"
attr measurement "$net=simple_scenario, $rep=1, $priceratiovalue=7, $a=1.2, $ctlg=10^3, $F=nrr, $ttl=1000, $D=fix1, $R=lru, $csize=10"
attr net simple_scenario
attr network networks.${net=simple_scenario}_network
attr priceratiovalue 7
attr processid 16231
attr rep 1
attr repetition 0
attr replication #0
attr resultdir results
attr runnumber 40
attr seedset 1
attr ttl 1000

scalar . 	a 	1.2
scalar . 	csize 	10
scalar . 	priceratiovalue 	7
scalar . 	rep 	1
scalar . 	ttl 	1000
scalar simple_scenario_network.content_distribution 	repo-0 	3
scalar simple_scenario_network.content_distribution 	repo-1 	4
scalar simple_scenario_network.content_distribution 	client-0 	0
scalar simple_scenario_network.content_distribution 	repo-0_card 	522
scalar simple_scenario_network.content_distribution 	repo-1_card 	478
scalar simple_scenario_network.statistics 	p_hit 	0.24159506885888
scalar simple_scenario_network.statistics 	interests 	75211.8
scalar simple_scenario_network.statistics 	data 	39235.6
scalar simple_scenario_network.statistics 	hdistance 	1.5855292417167
scalar simple_scenario_network.statistics 	avg_time 	0.001984853797
scalar simple_scenario_network.statistics 	downloads 	179880
scalar simple_scenario_network.statistics 	total_cost 	47244
scalar simple_scenario_network.node[0].core_layer 	interests[0] 	179881
scalar simple_scenario_network.node[0].core_layer 	data[0] 	107151
scalar simple_scenario_network.node[0].core_layer 	repo_int[0] 	89027
scalar simple_scenario_network.node[0].content_store 	p_hit[0] 	0.40432285788938
scalar simple_scenario_network.node[0].content_store 	hits[0] 	72730
scalar simple_scenario_network.node[0].content_store 	misses[0] 	107151
scalar simple_scenario_network.node[1].core_layer 	interests[1] 	49517
scalar simple_scenario_network.node[1].core_layer 	data[1] 	40872
scalar simple_scenario_network.node[1].content_store 	p_hit[1] 	0.17458650564453
scalar simple_scenario_network.node[1].content_store 	hits[1] 	8645
scalar simple_scenario_network.node[1].content_store 	misses[1] 	40872
scalar simple_scenario_network.node[2].core_layer 	interests[2] 	57634
scalar simple_scenario_network.node[2].core_layer 	data[2] 	48155
scalar simple_scenario_network.node[2].content_store 	p_hit[2] 	0.16446888989138
scalar simple_scenario_network.node[2].content_store 	hits[2] 	9479
scalar simple_scenario_network.node[2].content_store 	misses[2] 	48155
scalar simple_scenario_network.node[3].core_layer 	interests[3] 	40872
scalar simple_scenario_network.node[3].core_layer 	repo_load[3] 	40872
scalar simple_scenario_network.node[3].core_layer 	data[3] 	0
scalar simple_scenario_network.node[3].content_store 	p_hit[3] 	0
scalar simple_scenario_network.node[3].content_store 	hits[3] 	0
scalar simple_scenario_network.node[3].content_store 	misses[3] 	40872
scalar simple_scenario_network.node[4].core_layer 	interests[4] 	48155
scalar simple_scenario_network.node[4].core_layer 	repo_load[4] 	48155
scalar simple_scenario_network.node[4].core_layer 	data[4] 	0
scalar simple_scenario_network.node[4].content_store 	p_hit[4] 	0
scalar simple_scenario_network.node[4].content_store 	hits[4] 	0
scalar simple_scenario_network.node[4].content_store 	misses[4] 	48155
scalar simple_scenario_network.client[0] 	hdistance[0] 	1.5855292417167
scalar simple_scenario_network.client[0] 	downloads[0] 	179880
scalar simple_scenario_network.client[0] 	avg_time[0] 	0.001984853797
