version 2
run General-4-20140703-16:02:53-5210
attr D costprobprodcorr0.01
attr F nrr
attr R lru
attr a 0.8
attr configname General
attr csize 1e3
attr ctlg 1e5
attr datetime 20140703-16:02:53
attr experiment General
attr inifile omnetpp.ini
attr iterationvars "$net=geant_cost, $rep=1, $priceratiovalue=10, $weights=0.333_0.333_0.334, $lambda=100, $a=0.8, $ctlg=1e5, $F=nrr, $ttl=1000, $D=costprobprodcorr0.01, $xi=1, $R=lru, $csize=1e3, $pricebits=0, $window=60, $variance=0.05, $mytime=1800"
attr iterationvars2 "$net=geant_cost, $rep=1, $priceratiovalue=10, $weights=0.333_0.333_0.334, $lambda=100, $a=0.8, $ctlg=1e5, $F=nrr, $ttl=1000, $D=costprobprodcorr0.01, $xi=1, $R=lru, $csize=1e3, $pricebits=0, $window=60, $variance=0.05, $mytime=1800, $repetition=0"
attr lambda 100
attr measurement "$net=geant_cost, $rep=1, $priceratiovalue=10, $weights=0.333_0.333_0.334, $lambda=100, $a=0.8, $ctlg=1e5, $F=nrr, $ttl=1000, $D=costprobprodcorr0.01, $xi=1, $R=lru, $csize=1e3, $pricebits=0, $window=60, $variance=0.05, $mytime=1800"
attr mytime 1800
attr net geant_cost
attr network "networks.${net=geant_cost, abilene_cost}_network"
attr pricebits 0
attr priceratiovalue 10
attr processid 5210
attr rep 1
attr repetition 0
attr replication #0
attr resultdir results
attr runnumber 4
attr seedset 1
attr ttl 1000
attr variance 0.05
attr weights 0.333_0.333_0.334
attr window 60
attr xi 1

scalar . 	a 	0.8
scalar . 	csize 	1e3
scalar . 	ctlg 	1e5
scalar . 	lambda 	100
scalar . 	mytime 	1800
scalar . 	pricebits 	0
scalar . 	priceratiovalue 	10
scalar . 	rep 	1
scalar . 	ttl 	1000
scalar . 	variance 	0.05
scalar . 	window 	60
scalar . 	xi 	1
scalar geant_cost_network.content_distribution 	repo-0 	22
scalar geant_cost_network.content_distribution 	repo-1 	23
scalar geant_cost_network.content_distribution 	repo-2 	24
scalar geant_cost_network.content_distribution 	client-0 	20
scalar geant_cost_network.content_distribution 	client-1 	10
scalar geant_cost_network.content_distribution 	client-2 	12
scalar geant_cost_network.content_distribution 	client-3 	9
scalar geant_cost_network.content_distribution 	client-4 	5
scalar geant_cost_network.content_distribution 	repo-0_card 	33396
scalar geant_cost_network.content_distribution 	repo-1_card 	33039
scalar geant_cost_network.content_distribution 	repo-2_card 	33565
scalar geant_cost_network.statistics 	repo_popularity[0] 	0.32138981014208
scalar geant_cost_network.statistics 	repo_popularity[1] 	0.31688252633552
scalar geant_cost_network.statistics 	repo_popularity[2] 	0.3617276635224
scalar geant_cost_network.node[7].face$o[4].channel 	price[7] 	0
scalar geant_cost_network.node[7].face$o[4].channel 	represented_price[7] 	0
scalar geant_cost_network.node[8].face$o[3].channel 	price[8] 	0
scalar geant_cost_network.node[8].face$o[3].channel 	represented_price[8] 	0
scalar geant_cost_network.node[21].face$o[5].channel 	price[21] 	0
scalar geant_cost_network.node[21].face$o[5].channel 	represented_price[21] 	0
scalar geant_cost_network.node[22].face$o[1].channel 	price[22] 	0
scalar geant_cost_network.node[22].face$o[1].channel 	represented_price[22] 	0
scalar geant_cost_network.node[23].face$o[1].channel 	price[23] 	1
scalar geant_cost_network.node[23].face$o[1].channel 	represented_price[23] 	1
scalar geant_cost_network.node[24].face$o[1].channel 	price[24] 	10
scalar geant_cost_network.node[24].face$o[1].channel 	represented_price[24] 	10
scalar geant_cost_network.statistics 	p_hit 	0.042252920460131
scalar geant_cost_network.statistics 	interests 	3095152.68
scalar geant_cost_network.statistics 	data 	2389712.96
scalar geant_cost_network.statistics 	hdistance 	4.2045923736855
scalar geant_cost_network.statistics 	avg_time 	0.007043292031
scalar geant_cost_network.statistics 	downloads 	17625308
scalar geant_cost_network.statistics 	total_cost 	48337908
scalar geant_cost_network.statistics 	total_replicas 	100000
scalar geant_cost_network.statistics 	inner_hit 	0.18587102137449
scalar geant_cost_network.statistics 	interests_sent 	17635983
scalar geant_cost_network.node[0].core_layer 	interests[0] 	0
scalar geant_cost_network.node[0].core_layer 	data[0] 	0
scalar geant_cost_network.node[0].core_layer 	repo_int[0] 	14349274
scalar geant_cost_network.node[0].content_store 	p_hit[0] 	-nan
scalar geant_cost_network.node[0].content_store 	hits[0] 	0
scalar geant_cost_network.node[0].content_store 	misses[0] 	0
scalar geant_cost_network.node[0].content_store 	decision_yes[0] 	0
scalar geant_cost_network.node[0].content_store 	decision_no[0] 	0
scalar geant_cost_network.node[0].content_store 	decision_ratio[0] 	0
scalar geant_cost_network.node[0].content_store 	correction_factor[0] 	0.0027225701061802
scalar geant_cost_network.node[0].content_store 	xi[0] 	1
scalar geant_cost_network.node[1].core_layer 	interests[1] 	0
scalar geant_cost_network.node[1].core_layer 	data[1] 	0
scalar geant_cost_network.node[1].content_store 	p_hit[1] 	-nan
scalar geant_cost_network.node[1].content_store 	hits[1] 	0
scalar geant_cost_network.node[1].content_store 	misses[1] 	0
scalar geant_cost_network.node[1].content_store 	decision_yes[1] 	0
scalar geant_cost_network.node[1].content_store 	decision_no[1] 	0
scalar geant_cost_network.node[1].content_store 	decision_ratio[1] 	0
scalar geant_cost_network.node[1].content_store 	correction_factor[1] 	0.0027225701061802
scalar geant_cost_network.node[1].content_store 	xi[1] 	1
scalar geant_cost_network.node[2].core_layer 	interests[2] 	0
scalar geant_cost_network.node[2].core_layer 	data[2] 	0
scalar geant_cost_network.node[2].content_store 	p_hit[2] 	-nan
scalar geant_cost_network.node[2].content_store 	hits[2] 	0
scalar geant_cost_network.node[2].content_store 	misses[2] 	0
scalar geant_cost_network.node[2].content_store 	decision_yes[2] 	0
scalar geant_cost_network.node[2].content_store 	decision_no[2] 	0
scalar geant_cost_network.node[2].content_store 	decision_ratio[2] 	0
scalar geant_cost_network.node[2].content_store 	correction_factor[2] 	0.0027225701061802
scalar geant_cost_network.node[2].content_store 	xi[2] 	1
scalar geant_cost_network.node[3].core_layer 	interests[3] 	4949184
scalar geant_cost_network.node[3].core_layer 	data[3] 	4430106
scalar geant_cost_network.node[3].content_store 	p_hit[3] 	0.1048799155578
scalar geant_cost_network.node[3].content_store 	hits[3] 	519070
scalar geant_cost_network.node[3].content_store 	misses[3] 	4430114
scalar geant_cost_network.node[3].content_store 	decision_yes[3] 	71740
scalar geant_cost_network.node[3].content_store 	decision_no[3] 	4358366
scalar geant_cost_network.node[3].content_store 	decision_ratio[3] 	0.016193743445416
scalar geant_cost_network.node[3].content_store 	correction_factor[3] 	0.0027225701061802
scalar geant_cost_network.node[3].content_store 	xi[3] 	1
scalar geant_cost_network.node[4].core_layer 	interests[4] 	6395430
scalar geant_cost_network.node[4].core_layer 	data[4] 	6335743
scalar geant_cost_network.node[4].content_store 	p_hit[4] 	0.0093025801236195
scalar geant_cost_network.node[4].content_store 	hits[4] 	59494
scalar geant_cost_network.node[4].content_store 	misses[4] 	6335936
scalar geant_cost_network.node[4].content_store 	decision_yes[4] 	74091
scalar geant_cost_network.node[4].content_store 	decision_no[4] 	6261651
scalar geant_cost_network.node[4].content_store 	decision_ratio[4] 	0.011694131484521
scalar geant_cost_network.node[4].content_store 	correction_factor[4] 	0.0027225701061802
scalar geant_cost_network.node[4].content_store 	xi[4] 	1
scalar geant_cost_network.node[5].core_layer 	interests[5] 	3806565
scalar geant_cost_network.node[5].core_layer 	data[5] 	3552293
scalar geant_cost_network.node[5].content_store 	p_hit[5] 	0.065920849900107
scalar geant_cost_network.node[5].content_store 	hits[5] 	250932
scalar geant_cost_network.node[5].content_store 	misses[5] 	3555633
scalar geant_cost_network.node[5].content_store 	decision_yes[5] 	26356
scalar geant_cost_network.node[5].content_store 	decision_no[5] 	3525937
scalar geant_cost_network.node[5].content_store 	decision_ratio[5] 	0.0074194330253726
scalar geant_cost_network.node[5].content_store 	correction_factor[5] 	0.0027225701061802
scalar geant_cost_network.node[5].content_store 	xi[5] 	1
scalar geant_cost_network.node[6].core_layer 	interests[6] 	2333151
scalar geant_cost_network.node[6].core_layer 	data[6] 	2134032
scalar geant_cost_network.node[6].content_store 	p_hit[6] 	0.085343383261521
scalar geant_cost_network.node[6].content_store 	hits[6] 	199119
scalar geant_cost_network.node[6].content_store 	misses[6] 	2134032
scalar geant_cost_network.node[6].content_store 	decision_yes[6] 	2201
scalar geant_cost_network.node[6].content_store 	decision_no[6] 	2131831
scalar geant_cost_network.node[6].content_store 	decision_ratio[6] 	0.0010313809727314
scalar geant_cost_network.node[6].content_store 	correction_factor[6] 	0.0027225701061802
scalar geant_cost_network.node[6].content_store 	xi[6] 	1
scalar geant_cost_network.node[7].core_layer 	interests[7] 	7908413
scalar geant_cost_network.node[7].core_layer 	data[7] 	7667460
scalar geant_cost_network.node[7].content_store 	p_hit[7] 	0.030446943021312
scalar geant_cost_network.node[7].content_store 	hits[7] 	240787
scalar geant_cost_network.node[7].content_store 	misses[7] 	7667626
scalar geant_cost_network.node[7].content_store 	decision_yes[7] 	4569
scalar geant_cost_network.node[7].content_store 	decision_no[7] 	7662891
scalar geant_cost_network.node[7].content_store 	decision_ratio[7] 	0.0005958948595754
scalar geant_cost_network.node[7].content_store 	correction_factor[7] 	0.0027225701061802
scalar geant_cost_network.node[7].content_store 	xi[7] 	1
scalar geant_cost_network.node[8].core_layer 	interests[8] 	7307491
scalar geant_cost_network.node[8].core_layer 	data[8] 	6735238
scalar geant_cost_network.node[8].content_store 	p_hit[8] 	0.07831046251032
scalar geant_cost_network.node[8].content_store 	hits[8] 	572253
scalar geant_cost_network.node[8].content_store 	misses[8] 	6735238
scalar geant_cost_network.node[8].content_store 	decision_yes[8] 	11555
scalar geant_cost_network.node[8].content_store 	decision_no[8] 	6723682
scalar geant_cost_network.node[8].content_store 	decision_ratio[8] 	0.0017156040685725
scalar geant_cost_network.node[8].content_store 	correction_factor[8] 	0.0027225701061802
scalar geant_cost_network.node[8].content_store 	xi[8] 	1
scalar geant_cost_network.node[9].core_layer 	interests[9] 	8154691
scalar geant_cost_network.node[9].core_layer 	data[9] 	7908076
scalar geant_cost_network.node[9].content_store 	p_hit[9] 	0.029728655567697
scalar geant_cost_network.node[9].content_store 	hits[9] 	242428
scalar geant_cost_network.node[9].content_store 	misses[9] 	7912263
scalar geant_cost_network.node[9].content_store 	decision_yes[9] 	54729
scalar geant_cost_network.node[9].content_store 	decision_no[9] 	7853347
scalar geant_cost_network.node[9].content_store 	decision_ratio[9] 	0.0069206466908006
scalar geant_cost_network.node[9].content_store 	correction_factor[9] 	0.0027225701061802
scalar geant_cost_network.node[9].content_store 	xi[9] 	1
scalar geant_cost_network.node[10].core_layer 	interests[10] 	3633982
scalar geant_cost_network.node[10].core_layer 	data[10] 	3482642
scalar geant_cost_network.node[10].content_store 	p_hit[10] 	0.041059917192765
scalar geant_cost_network.node[10].content_store 	hits[10] 	149211
scalar geant_cost_network.node[10].content_store 	misses[10] 	3484771
scalar geant_cost_network.node[10].content_store 	decision_yes[10] 	26365
scalar geant_cost_network.node[10].content_store 	decision_no[10] 	3456277
scalar geant_cost_network.node[10].content_store 	decision_ratio[10] 	0.0075704020108871
scalar geant_cost_network.node[10].content_store 	correction_factor[10] 	0.0027225701061802
scalar geant_cost_network.node[10].content_store 	xi[10] 	1
scalar geant_cost_network.node[11].core_layer 	interests[11] 	0
scalar geant_cost_network.node[11].core_layer 	data[11] 	0
scalar geant_cost_network.node[11].content_store 	p_hit[11] 	-nan
scalar geant_cost_network.node[11].content_store 	hits[11] 	0
scalar geant_cost_network.node[11].content_store 	misses[11] 	0
scalar geant_cost_network.node[11].content_store 	decision_yes[11] 	0
scalar geant_cost_network.node[11].content_store 	decision_no[11] 	0
scalar geant_cost_network.node[11].content_store 	decision_ratio[11] 	0
scalar geant_cost_network.node[11].content_store 	correction_factor[11] 	0.0027225701061802
scalar geant_cost_network.node[11].content_store 	xi[11] 	1
scalar geant_cost_network.node[12].core_layer 	interests[12] 	6052155
scalar geant_cost_network.node[12].core_layer 	data[12] 	5842432
scalar geant_cost_network.node[12].content_store 	p_hit[12] 	0.033910070049429
scalar geant_cost_network.node[12].content_store 	hits[12] 	205229
scalar geant_cost_network.node[12].content_store 	misses[12] 	5846926
scalar geant_cost_network.node[12].content_store 	decision_yes[12] 	74057
scalar geant_cost_network.node[12].content_store 	decision_no[12] 	5768374
scalar geant_cost_network.node[12].content_store 	decision_ratio[12] 	0.012675716666573
scalar geant_cost_network.node[12].content_store 	correction_factor[12] 	0.0027225701061802
scalar geant_cost_network.node[12].content_store 	xi[12] 	1
scalar geant_cost_network.node[13].core_layer 	interests[13] 	97262
scalar geant_cost_network.node[13].core_layer 	data[13] 	97262
scalar geant_cost_network.node[13].content_store 	p_hit[13] 	0
scalar geant_cost_network.node[13].content_store 	hits[13] 	0
scalar geant_cost_network.node[13].content_store 	misses[13] 	97262
scalar geant_cost_network.node[13].content_store 	decision_yes[13] 	0
scalar geant_cost_network.node[13].content_store 	decision_no[13] 	97262
scalar geant_cost_network.node[13].content_store 	decision_ratio[13] 	0
scalar geant_cost_network.node[13].content_store 	correction_factor[13] 	0.0027225701061802
scalar geant_cost_network.node[13].content_store 	xi[13] 	1
scalar geant_cost_network.node[14].core_layer 	interests[14] 	1290770
scalar geant_cost_network.node[14].core_layer 	data[14] 	1127578
scalar geant_cost_network.node[14].content_store 	p_hit[14] 	0.12642996041123
scalar geant_cost_network.node[14].content_store 	hits[14] 	163192
scalar geant_cost_network.node[14].content_store 	misses[14] 	1127578
scalar geant_cost_network.node[14].content_store 	decision_yes[14] 	23735
scalar geant_cost_network.node[14].content_store 	decision_no[14] 	1103843
scalar geant_cost_network.node[14].content_store 	decision_ratio[14] 	0.021049541583819
scalar geant_cost_network.node[14].content_store 	correction_factor[14] 	0.0027225701061802
scalar geant_cost_network.node[14].content_store 	xi[14] 	1
scalar geant_cost_network.node[15].core_layer 	interests[15] 	0
scalar geant_cost_network.node[15].core_layer 	data[15] 	0
scalar geant_cost_network.node[15].content_store 	p_hit[15] 	-nan
scalar geant_cost_network.node[15].content_store 	hits[15] 	0
scalar geant_cost_network.node[15].content_store 	misses[15] 	0
scalar geant_cost_network.node[15].content_store 	decision_yes[15] 	0
scalar geant_cost_network.node[15].content_store 	decision_no[15] 	0
scalar geant_cost_network.node[15].content_store 	decision_ratio[15] 	0
scalar geant_cost_network.node[15].content_store 	correction_factor[15] 	0.0027225701061802
scalar geant_cost_network.node[15].content_store 	xi[15] 	1
scalar geant_cost_network.node[16].core_layer 	interests[16] 	0
scalar geant_cost_network.node[16].core_layer 	data[16] 	0
scalar geant_cost_network.node[16].content_store 	p_hit[16] 	-nan
scalar geant_cost_network.node[16].content_store 	hits[16] 	0
scalar geant_cost_network.node[16].content_store 	misses[16] 	0
scalar geant_cost_network.node[16].content_store 	decision_yes[16] 	0
scalar geant_cost_network.node[16].content_store 	decision_no[16] 	0
scalar geant_cost_network.node[16].content_store 	decision_ratio[16] 	0
scalar geant_cost_network.node[16].content_store 	correction_factor[16] 	0.0027225701061802
scalar geant_cost_network.node[16].content_store 	xi[16] 	1
scalar geant_cost_network.node[17].core_layer 	interests[17] 	0
scalar geant_cost_network.node[17].core_layer 	data[17] 	0
scalar geant_cost_network.node[17].content_store 	p_hit[17] 	-nan
scalar geant_cost_network.node[17].content_store 	hits[17] 	0
scalar geant_cost_network.node[17].content_store 	misses[17] 	0
scalar geant_cost_network.node[17].content_store 	decision_yes[17] 	0
scalar geant_cost_network.node[17].content_store 	decision_no[17] 	0
scalar geant_cost_network.node[17].content_store 	decision_ratio[17] 	0
scalar geant_cost_network.node[17].content_store 	correction_factor[17] 	0.0027225701061802
scalar geant_cost_network.node[17].content_store 	xi[17] 	1
scalar geant_cost_network.node[18].core_layer 	interests[18] 	2748367
scalar geant_cost_network.node[18].core_layer 	data[18] 	2646484
scalar geant_cost_network.node[18].content_store 	p_hit[18] 	0.037038357686583
scalar geant_cost_network.node[18].content_store 	hits[18] 	101795
scalar geant_cost_network.node[18].content_store 	misses[18] 	2646572
scalar geant_cost_network.node[18].content_store 	decision_yes[18] 	2270
scalar geant_cost_network.node[18].content_store 	decision_no[18] 	2644214
scalar geant_cost_network.node[18].content_store 	decision_ratio[18] 	0.00085774181895677
scalar geant_cost_network.node[18].content_store 	correction_factor[18] 	0.0027225701061802
scalar geant_cost_network.node[18].content_store 	xi[18] 	1
scalar geant_cost_network.node[19].core_layer 	interests[19] 	0
scalar geant_cost_network.node[19].core_layer 	data[19] 	0
scalar geant_cost_network.node[19].content_store 	p_hit[19] 	-nan
scalar geant_cost_network.node[19].content_store 	hits[19] 	0
scalar geant_cost_network.node[19].content_store 	misses[19] 	0
scalar geant_cost_network.node[19].content_store 	decision_yes[19] 	0
scalar geant_cost_network.node[19].content_store 	decision_no[19] 	0
scalar geant_cost_network.node[19].content_store 	decision_ratio[19] 	0
scalar geant_cost_network.node[19].content_store 	correction_factor[19] 	0.0027225701061802
scalar geant_cost_network.node[19].content_store 	xi[19] 	1
scalar geant_cost_network.node[20].core_layer 	interests[20] 	3785575
scalar geant_cost_network.node[20].core_layer 	data[20] 	3377371
scalar geant_cost_network.node[20].content_store 	p_hit[20] 	0.10713590405685
scalar geant_cost_network.node[20].content_store 	hits[20] 	405571
scalar geant_cost_network.node[20].content_store 	misses[20] 	3380004
scalar geant_cost_network.node[20].content_store 	decision_yes[20] 	26996
scalar geant_cost_network.node[20].content_store 	decision_no[20] 	3350375
scalar geant_cost_network.node[20].content_store 	decision_ratio[20] 	0.0079931994441831
scalar geant_cost_network.node[20].content_store 	correction_factor[20] 	0.0027225701061802
scalar geant_cost_network.node[20].content_store 	xi[20] 	1
scalar geant_cost_network.node[21].core_layer 	interests[21] 	4566507
scalar geant_cost_network.node[21].core_layer 	data[21] 	4406107
scalar geant_cost_network.node[21].content_store 	p_hit[21] 	0.035125315695344
scalar geant_cost_network.node[21].content_store 	hits[21] 	160400
scalar geant_cost_network.node[21].content_store 	misses[21] 	4406107
scalar geant_cost_network.node[21].content_store 	decision_yes[21] 	120530
scalar geant_cost_network.node[21].content_store 	decision_no[21] 	4285577
scalar geant_cost_network.node[21].content_store 	decision_ratio[21] 	0.027355214024535
scalar geant_cost_network.node[21].content_store 	correction_factor[21] 	0.0027225701061802
scalar geant_cost_network.node[21].content_store 	xi[21] 	1
scalar geant_cost_network.node[22].core_layer 	interests[22] 	5666329
scalar geant_cost_network.node[22].core_layer 	repo_load[22] 	5666329
scalar geant_cost_network.node[22].core_layer 	data[22] 	0
scalar geant_cost_network.node[22].content_store 	p_hit[22] 	0
scalar geant_cost_network.node[22].content_store 	hits[22] 	0
scalar geant_cost_network.node[22].content_store 	misses[22] 	5666329
scalar geant_cost_network.node[22].content_store 	decision_yes[22] 	0
scalar geant_cost_network.node[22].content_store 	decision_no[22] 	5666329
scalar geant_cost_network.node[22].content_store 	decision_ratio[22] 	0
scalar geant_cost_network.node[23].core_layer 	interests[23] 	4276838
scalar geant_cost_network.node[23].core_layer 	repo_load[23] 	4276838
scalar geant_cost_network.node[23].core_layer 	data[23] 	0
scalar geant_cost_network.node[23].content_store 	p_hit[23] 	0
scalar geant_cost_network.node[23].content_store 	hits[23] 	0
scalar geant_cost_network.node[23].content_store 	misses[23] 	4276838
scalar geant_cost_network.node[23].content_store 	decision_yes[23] 	0
scalar geant_cost_network.node[23].content_store 	decision_no[23] 	4276838
scalar geant_cost_network.node[23].content_store 	decision_ratio[23] 	0
scalar geant_cost_network.node[24].core_layer 	interests[24] 	4406107
scalar geant_cost_network.node[24].core_layer 	repo_load[24] 	4406107
scalar geant_cost_network.node[24].core_layer 	data[24] 	0
scalar geant_cost_network.node[24].content_store 	p_hit[24] 	0
scalar geant_cost_network.node[24].content_store 	hits[24] 	0
scalar geant_cost_network.node[24].content_store 	misses[24] 	4406107
scalar geant_cost_network.node[24].content_store 	decision_yes[24] 	0
scalar geant_cost_network.node[24].content_store 	decision_no[24] 	4406107
scalar geant_cost_network.node[24].content_store 	decision_ratio[24] 	0
scalar geant_cost_network.client[5] 	hdistance[5] 	3.8584196870234
scalar geant_cost_network.client[5] 	downloads[5] 	3523011
scalar geant_cost_network.client[5] 	avg_time[5] 	0.010125181607
scalar geant_cost_network.client[5] 	interests_sent[5] 	3526299
scalar geant_cost_network.client[9] 	hdistance[9] 	3.8866332867671
scalar geant_cost_network.client[9] 	downloads[9] 	3526873
scalar geant_cost_network.client[9] 	avg_time[9] 	0.004944007465
scalar geant_cost_network.client[9] 	interests_sent[9] 	3528195
scalar geant_cost_network.client[10] 	hdistance[10] 	4.864934582092
scalar geant_cost_network.client[10] 	downloads[10] 	3523500
scalar geant_cost_network.client[10] 	avg_time[10] 	0.006900350645
scalar geant_cost_network.client[10] 	interests_sent[10] 	3525629
scalar geant_cost_network.client[12] 	hdistance[12] 	4.1834160683172
scalar geant_cost_network.client[12] 	downloads[12] 	3525111
scalar geant_cost_network.client[12] 	avg_time[12] 	0.005853275497
scalar geant_cost_network.client[12] 	interests_sent[12] 	3526414
scalar geant_cost_network.client[20] 	hdistance[20] 	4.2295582442278
scalar geant_cost_network.client[20] 	downloads[20] 	3526813
scalar geant_cost_network.client[20] 	avg_time[20] 	0.007393644941
scalar geant_cost_network.client[20] 	interests_sent[20] 	3529446
