version 2
run General-18-20150311-18:59:41-28973
attr D prob_cache
attr F spr
attr R lru
attr a 0.9
attr configname General
attr datetime 20150311-18:59:41
attr experiment General
attr inifile omnetpp.ini
attr iterationvars "$net=abilene, $rep=0, $a=0.9, $F=spr, $ttl=1000, $D=prob_cache, $R=lru"
attr iterationvars2 "$net=abilene, $rep=0, $a=0.9, $F=spr, $ttl=1000, $D=prob_cache, $R=lru, $repetition=0"
attr measurement "$net=abilene, $rep=0, $a=0.9, $F=spr, $ttl=1000, $D=prob_cache, $R=lru"
attr net abilene
attr network networks.${net=abilene}_network
attr processid 28973
attr rep 0
attr repetition 0
attr replication #0
attr resultdir results
attr runnumber 18
attr seedset 0
attr ttl 1000

scalar . 	a 	0.9
scalar . 	rep 	0
scalar . 	ttl 	1000
scalar abilene_network.content_distribution 	repo-0 	5
scalar abilene_network.content_distribution 	client-0 	8
scalar abilene_network.content_distribution 	client-1 	9
scalar abilene_network.content_distribution 	client-2 	5
scalar abilene_network.content_distribution 	client-3 	0
scalar abilene_network.content_distribution 	client-4 	1
scalar abilene_network.content_distribution 	client-5 	7
scalar abilene_network.content_distribution 	client-6 	6
scalar abilene_network.content_distribution 	client-7 	2
scalar abilene_network.content_distribution 	client-8 	4
scalar abilene_network.content_distribution 	client-9 	10
scalar abilene_network.content_distribution 	client-10 	3
scalar abilene_network.content_distribution 	repo-0_card 	10000
scalar abilene_network.content_distribution 	repo-0_price 	0
scalar abilene_network.statistics 	stabilization_time 	1185.7
scalar abilene_network.statistics 	p_hit 	0.13656379682148
scalar abilene_network.statistics 	interests 	5016.6363636364
scalar abilene_network.statistics 	data 	3217.6363636364
scalar abilene_network.statistics 	hdistance 	2.3992573434201
scalar abilene_network.statistics 	avg_time 	0.010052922769
scalar abilene_network.statistics 	downloads 	19788
scalar abilene_network.statistics 	total_cost 	0
scalar abilene_network.statistics 	total_replicas 	10000
scalar abilene_network.statistics 	inner_hit 	0.38083687083081
scalar abilene_network.node[0].core_layer 	interests[0] 	1829
scalar abilene_network.node[0].core_layer 	data[0] 	1229
scalar abilene_network.node[0].core_layer 	repo_int[0] 	12252
scalar abilene_network.node[0].content_store 	p_hit[0] 	0.32750136686714
scalar abilene_network.node[0].content_store 	hits[0] 	599
scalar abilene_network.node[0].content_store 	misses[0] 	1230
scalar abilene_network.node[0].content_store 	decision_yes[0] 	144
scalar abilene_network.node[0].content_store 	decision_no[0] 	1085
scalar abilene_network.node[0].content_store 	decision_ratio[0] 	0.11716842961758
scalar abilene_network.node[1].core_layer 	interests[1] 	4313
scalar abilene_network.node[1].core_layer 	data[1] 	3667
scalar abilene_network.node[1].content_store 	p_hit[1] 	0.14977973568282
scalar abilene_network.node[1].content_store 	hits[1] 	646
scalar abilene_network.node[1].content_store 	misses[1] 	3667
scalar abilene_network.node[1].content_store 	decision_yes[1] 	564
scalar abilene_network.node[1].content_store 	decision_no[1] 	3103
scalar abilene_network.node[1].content_store 	decision_ratio[1] 	0.15380419961822
scalar abilene_network.node[2].core_layer 	interests[2] 	5454
scalar abilene_network.node[2].core_layer 	data[2] 	4792
scalar abilene_network.node[2].content_store 	p_hit[2] 	0.12137880454712
scalar abilene_network.node[2].content_store 	hits[2] 	662
scalar abilene_network.node[2].content_store 	misses[2] 	4792
scalar abilene_network.node[2].content_store 	decision_yes[2] 	795
scalar abilene_network.node[2].content_store 	decision_no[2] 	3997
scalar abilene_network.node[2].content_store 	decision_ratio[2] 	0.16590150250417
scalar abilene_network.node[3].core_layer 	interests[3] 	6612
scalar abilene_network.node[3].core_layer 	data[3] 	5866
scalar abilene_network.node[3].content_store 	p_hit[3] 	0.11282516636419
scalar abilene_network.node[3].content_store 	hits[3] 	746
scalar abilene_network.node[3].content_store 	misses[3] 	5866
scalar abilene_network.node[3].content_store 	decision_yes[3] 	996
scalar abilene_network.node[3].content_store 	decision_no[3] 	4870
scalar abilene_network.node[3].content_store 	decision_ratio[3] 	0.16979202182066
scalar abilene_network.node[4].core_layer 	interests[4] 	7633
scalar abilene_network.node[4].core_layer 	data[4] 	6864
scalar abilene_network.node[4].content_store 	p_hit[4] 	0.10074675750033
scalar abilene_network.node[4].content_store 	hits[4] 	769
scalar abilene_network.node[4].content_store 	misses[4] 	6864
scalar abilene_network.node[4].content_store 	decision_yes[4] 	959
scalar abilene_network.node[4].content_store 	decision_no[4] 	5905
scalar abilene_network.node[4].content_store 	decision_ratio[4] 	0.13971445221445
scalar abilene_network.node[5].core_layer 	interests[5] 	13303
scalar abilene_network.node[5].core_layer 	repo_load[5] 	12252
scalar abilene_network.node[5].core_layer 	data[5] 	0
scalar abilene_network.node[5].content_store 	p_hit[5] 	0.079004735773886
scalar abilene_network.node[5].content_store 	hits[5] 	1051
scalar abilene_network.node[5].content_store 	misses[5] 	12252
scalar abilene_network.node[5].content_store 	decision_yes[5] 	1237
scalar abilene_network.node[5].content_store 	decision_no[5] 	11015
scalar abilene_network.node[5].content_store 	decision_ratio[5] 	0.10096310806399
scalar abilene_network.node[6].core_layer 	interests[6] 	5242
scalar abilene_network.node[6].core_layer 	data[6] 	4644
scalar abilene_network.node[6].content_store 	p_hit[6] 	0.11407859595574
scalar abilene_network.node[6].content_store 	hits[6] 	598
scalar abilene_network.node[6].content_store 	misses[6] 	4644
scalar abilene_network.node[6].content_store 	decision_yes[6] 	637
scalar abilene_network.node[6].content_store 	decision_no[6] 	4007
scalar abilene_network.node[6].content_store 	decision_ratio[6] 	0.13716623600345
scalar abilene_network.node[7].core_layer 	interests[7] 	4142
scalar abilene_network.node[7].core_layer 	data[7] 	3479
scalar abilene_network.node[7].content_store 	p_hit[7] 	0.16006760019314
scalar abilene_network.node[7].content_store 	hits[7] 	663
scalar abilene_network.node[7].content_store 	misses[7] 	3479
scalar abilene_network.node[7].content_store 	decision_yes[7] 	509
scalar abilene_network.node[7].content_store 	decision_no[7] 	2970
scalar abilene_network.node[7].content_store 	decision_ratio[7] 	0.1463064098879
scalar abilene_network.node[8].core_layer 	interests[8] 	2959
scalar abilene_network.node[8].core_layer 	data[8] 	2348
scalar abilene_network.node[8].content_store 	p_hit[8] 	0.20648867860764
scalar abilene_network.node[8].content_store 	hits[8] 	611
scalar abilene_network.node[8].content_store 	misses[8] 	2348
scalar abilene_network.node[8].content_store 	decision_yes[8] 	345
scalar abilene_network.node[8].content_store 	decision_no[8] 	2003
scalar abilene_network.node[8].content_store 	decision_ratio[8] 	0.146933560477
scalar abilene_network.node[9].core_layer 	interests[9] 	1883
scalar abilene_network.node[9].core_layer 	data[9] 	1235
scalar abilene_network.node[9].content_store 	p_hit[9] 	0.3441317047265
scalar abilene_network.node[9].content_store 	hits[9] 	648
scalar abilene_network.node[9].content_store 	misses[9] 	1235
scalar abilene_network.node[9].content_store 	decision_yes[9] 	147
scalar abilene_network.node[9].content_store 	decision_no[9] 	1088
scalar abilene_network.node[9].content_store 	decision_ratio[9] 	0.11902834008097
scalar abilene_network.node[10].core_layer 	interests[10] 	1813
scalar abilene_network.node[10].core_layer 	data[10] 	1270
scalar abilene_network.node[10].content_store 	p_hit[10] 	0.29950358521787
scalar abilene_network.node[10].content_store 	hits[10] 	543
scalar abilene_network.node[10].content_store 	misses[10] 	1270
scalar abilene_network.node[10].content_store 	decision_yes[10] 	164
scalar abilene_network.node[10].content_store 	decision_no[10] 	1106
scalar abilene_network.node[10].content_store 	decision_ratio[10] 	0.12913385826772
scalar abilene_network.client[0] 	hdistance[0] 	3.6061269146608
scalar abilene_network.client[0] 	downloads[0] 	1828
scalar abilene_network.client[0] 	avg_time[0] 	0.019434944836
scalar abilene_network.client[1] 	hdistance[1] 	3.1945975744212
scalar abilene_network.client[1] 	downloads[1] 	1814
scalar abilene_network.client[1] 	avg_time[1] 	0.013291730542
scalar abilene_network.client[2] 	hdistance[2] 	2.6726357022943
scalar abilene_network.client[2] 	downloads[2] 	1787
scalar abilene_network.client[2] 	avg_time[2] 	0.009721790268
scalar abilene_network.client[3] 	hdistance[3] 	2.0703296703297
scalar abilene_network.client[3] 	downloads[3] 	1820
scalar abilene_network.client[3] 	avg_time[3] 	0.00651298856
scalar abilene_network.client[4] 	hdistance[4] 	1.4402942840973
scalar abilene_network.client[4] 	downloads[4] 	1767
scalar abilene_network.client[4] 	avg_time[4] 	0.005785126893
scalar abilene_network.client[5] 	hdistance[5] 	0.77325905292479
scalar abilene_network.client[5] 	downloads[5] 	1795
scalar abilene_network.client[5] 	avg_time[5] 	0
scalar abilene_network.client[6] 	hdistance[6] 	1.4611457742484
scalar abilene_network.client[6] 	downloads[6] 	1763
scalar abilene_network.client[6] 	avg_time[6] 	0.001680884427
scalar abilene_network.client[7] 	hdistance[7] 	1.9955406911929
scalar abilene_network.client[7] 	downloads[7] 	1794
scalar abilene_network.client[7] 	avg_time[7] 	0.005613756516
scalar abilene_network.client[8] 	hdistance[8] 	2.4982598607889
scalar abilene_network.client[8] 	downloads[8] 	1724
scalar abilene_network.client[8] 	avg_time[8] 	0.010170080782
scalar abilene_network.client[9] 	hdistance[9] 	2.9830058417419
scalar abilene_network.client[9] 	downloads[9] 	1883
scalar abilene_network.client[9] 	avg_time[9] 	0.019001592727
scalar abilene_network.client[10] 	hdistance[10] 	3.6966354109211
scalar abilene_network.client[10] 	downloads[10] 	1813
scalar abilene_network.client[10] 	avg_time[10] 	0.019369254913
