version 2
run General-1-20140618-15:31:34-16761
attr D fix0.05
attr F spr
attr R lru
attr a 1
attr configname General
attr csize 1e3
attr ctlg 1e5
attr datetime 20140618-15:31:34
attr experiment General
attr inifile omnetpp.ini
attr iterationvars "$net=abilene_cost, $rep=1, $priceratiovalue=10, $weights=0.333_0.333_0.334, $lambda=100, $a=1, $ctlg=1e5, $F=spr, $ttl=1000, $D=fix0.05, $xi=1, $R=lru, $csize=1e3, $pricebits=0, $mytime=1800"
attr iterationvars2 "$net=abilene_cost, $rep=1, $priceratiovalue=10, $weights=0.333_0.333_0.334, $lambda=100, $a=1, $ctlg=1e5, $F=spr, $ttl=1000, $D=fix0.05, $xi=1, $R=lru, $csize=1e3, $pricebits=0, $mytime=1800, $repetition=0"
attr lambda 100
attr measurement "$net=abilene_cost, $rep=1, $priceratiovalue=10, $weights=0.333_0.333_0.334, $lambda=100, $a=1, $ctlg=1e5, $F=spr, $ttl=1000, $D=fix0.05, $xi=1, $R=lru, $csize=1e3, $pricebits=0, $mytime=1800"
attr mytime 1800
attr net abilene_cost
attr network networks.${net=abilene_cost}_network
attr pricebits 0
attr priceratiovalue 10
attr processid 16761
attr rep 1
attr repetition 0
attr replication #0
attr resultdir results
attr runnumber 1
attr seedset 1
attr ttl 1000
attr weights 0.333_0.333_0.334
attr xi 1

scalar . 	a 	1
scalar . 	csize 	1e3
scalar . 	ctlg 	1e5
scalar . 	lambda 	100
scalar . 	mytime 	1800
scalar . 	pricebits 	0
scalar . 	priceratiovalue 	10
scalar . 	rep 	1
scalar . 	ttl 	1000
scalar . 	xi 	1
scalar abilene_cost_network.content_distribution 	repo-0 	11
scalar abilene_cost_network.content_distribution 	repo-1 	12
scalar abilene_cost_network.content_distribution 	repo-2 	13
scalar abilene_cost_network.content_distribution 	client-0 	3
scalar abilene_cost_network.content_distribution 	client-1 	7
scalar abilene_cost_network.content_distribution 	client-2 	10
scalar abilene_cost_network.content_distribution 	repo-0_card 	33396
scalar abilene_cost_network.content_distribution 	repo-1_card 	33039
scalar abilene_cost_network.content_distribution 	repo-2_card 	33565
scalar abilene_cost_network.statistics 	repo_popularity[0] 	0.28686251265602
scalar abilene_cost_network.statistics 	repo_popularity[1] 	0.2886063426465
scalar abilene_cost_network.statistics 	repo_popularity[2] 	0.42453114469748
scalar abilene_cost_network.statistics 	stabilization_time 	148.7
scalar abilene_cost_network.node[0].face$o[3].channel 	price[0] 	0
scalar abilene_cost_network.node[0].face$o[3].channel 	represented_price[0] 	0
scalar abilene_cost_network.node[5].face$o[3].channel 	price[5] 	0
scalar abilene_cost_network.node[5].face$o[3].channel 	represented_price[5] 	0
scalar abilene_cost_network.node[9].face$o[3].channel 	price[9] 	0
scalar abilene_cost_network.node[9].face$o[3].channel 	represented_price[9] 	0
scalar abilene_cost_network.node[11].face$o[1].channel 	price[11] 	0
scalar abilene_cost_network.node[11].face$o[1].channel 	represented_price[11] 	0
scalar abilene_cost_network.node[12].face$o[1].channel 	price[12] 	1
scalar abilene_cost_network.node[12].face$o[1].channel 	represented_price[12] 	1
scalar abilene_cost_network.node[13].face$o[1].channel 	price[13] 	10
scalar abilene_cost_network.node[13].face$o[1].channel 	represented_price[13] 	10
scalar abilene_cost_network.statistics 	p_hit 	0.15500019103332
scalar abilene_cost_network.statistics 	inner_hit 	inf
scalar abilene_cost_network.statistics 	interests 	117780.5
scalar abilene_cost_network.statistics 	data 	79220.142857143
scalar abilene_cost_network.statistics 	hdistance 	2.5808341217045
scalar abilene_cost_network.statistics 	avg_time 	0
scalar abilene_cost_network.statistics 	downloads 	539845
scalar abilene_cost_network.statistics 	total_cost 	1079426
scalar abilene_cost_network.statistics 	total_replicas 	100000
scalar abilene_cost_network.statistics 	interests_sent 	539845
scalar abilene_cost_network.node[0].core_layer 	interests[0] 	106112
scalar abilene_cost_network.node[0].core_layer 	data[0] 	96366
scalar abilene_cost_network.node[0].core_layer 	repo_int[0] 	284261
scalar abilene_cost_network.node[0].content_store 	p_hit[0] 	0.091846351025332
scalar abilene_cost_network.node[0].content_store 	hits[0] 	9746
scalar abilene_cost_network.node[0].content_store 	misses[0] 	96366
scalar abilene_cost_network.node[0].content_store 	decision_yes[0] 	4784
scalar abilene_cost_network.node[0].content_store 	decision_no[0] 	91582
scalar abilene_cost_network.node[0].content_store 	decision_ratio[0] 	0.049644065334247
scalar abilene_cost_network.node[1].core_layer 	interests[1] 	74697
scalar abilene_cost_network.node[1].core_layer 	data[1] 	68526
scalar abilene_cost_network.node[1].content_store 	p_hit[1] 	0.082613759588738
scalar abilene_cost_network.node[1].content_store 	hits[1] 	6171
scalar abilene_cost_network.node[1].content_store 	misses[1] 	68526
scalar abilene_cost_network.node[1].content_store 	decision_yes[1] 	3384
scalar abilene_cost_network.node[1].content_store 	decision_no[1] 	65142
scalar abilene_cost_network.node[1].content_store 	decision_ratio[1] 	0.049382716049383
scalar abilene_cost_network.node[2].core_layer 	interests[2] 	74326
scalar abilene_cost_network.node[2].core_layer 	data[2] 	68535
scalar abilene_cost_network.node[2].content_store 	p_hit[2] 	0.077913516131636
scalar abilene_cost_network.node[2].content_store 	hits[2] 	5791
scalar abilene_cost_network.node[2].content_store 	misses[2] 	68535
scalar abilene_cost_network.node[2].content_store 	decision_yes[2] 	3360
scalar abilene_cost_network.node[2].content_store 	decision_no[2] 	65175
scalar abilene_cost_network.node[2].content_store 	decision_ratio[2] 	0.049026045086452
scalar abilene_cost_network.node[3].core_layer 	interests[3] 	213351
scalar abilene_cost_network.node[3].core_layer 	data[3] 	148881
scalar abilene_cost_network.node[3].content_store 	p_hit[3] 	0.30217810087602
scalar abilene_cost_network.node[3].content_store 	hits[3] 	64470
scalar abilene_cost_network.node[3].content_store 	misses[3] 	148881
scalar abilene_cost_network.node[3].content_store 	decision_yes[3] 	7471
scalar abilene_cost_network.node[3].content_store 	decision_no[3] 	141410
scalar abilene_cost_network.node[3].content_store 	decision_ratio[3] 	0.050181017053889
scalar abilene_cost_network.node[4].core_layer 	interests[4] 	70004
scalar abilene_cost_network.node[4].core_layer 	data[4] 	62752
scalar abilene_cost_network.node[4].content_store 	p_hit[4] 	0.10359408033827
scalar abilene_cost_network.node[4].content_store 	hits[4] 	7252
scalar abilene_cost_network.node[4].content_store 	misses[4] 	62752
scalar abilene_cost_network.node[4].content_store 	decision_yes[4] 	3280
scalar abilene_cost_network.node[4].content_store 	decision_no[4] 	59472
scalar abilene_cost_network.node[4].content_store 	decision_ratio[4] 	0.052269250382458
scalar abilene_cost_network.node[5].core_layer 	interests[5] 	94994
scalar abilene_cost_network.node[5].core_layer 	data[5] 	88836
scalar abilene_cost_network.node[5].content_store 	p_hit[5] 	0.06482514685138
scalar abilene_cost_network.node[5].content_store 	hits[5] 	6158
scalar abilene_cost_network.node[5].content_store 	misses[5] 	88836
scalar abilene_cost_network.node[5].content_store 	decision_yes[5] 	4399
scalar abilene_cost_network.node[5].content_store 	decision_no[5] 	84437
scalar abilene_cost_network.node[5].content_store 	decision_ratio[5] 	0.049518213336935
scalar abilene_cost_network.node[6].core_layer 	interests[6] 	39434
scalar abilene_cost_network.node[6].core_layer 	data[6] 	32242
scalar abilene_cost_network.node[6].content_store 	p_hit[6] 	0.18238068671705
scalar abilene_cost_network.node[6].content_store 	hits[6] 	7192
scalar abilene_cost_network.node[6].content_store 	misses[6] 	32242
scalar abilene_cost_network.node[6].content_store 	decision_yes[6] 	1533
scalar abilene_cost_network.node[6].content_store 	decision_no[6] 	30709
scalar abilene_cost_network.node[6].content_store 	decision_ratio[6] 	0.047546678245766
scalar abilene_cost_network.node[7].core_layer 	interests[7] 	219182
scalar abilene_cost_network.node[7].core_layer 	data[7] 	152678
scalar abilene_cost_network.node[7].content_store 	p_hit[7] 	0.30341907638401
scalar abilene_cost_network.node[7].content_store 	hits[7] 	66504
scalar abilene_cost_network.node[7].content_store 	misses[7] 	152678
scalar abilene_cost_network.node[7].content_store 	decision_yes[7] 	7612
scalar abilene_cost_network.node[7].content_store 	decision_no[7] 	145066
scalar abilene_cost_network.node[7].content_store 	decision_ratio[7] 	0.049856560866661
scalar abilene_cost_network.node[8].core_layer 	interests[8] 	113244
scalar abilene_cost_network.node[8].core_layer 	data[8] 	104695
scalar abilene_cost_network.node[8].content_store 	p_hit[8] 	0.075491858288298
scalar abilene_cost_network.node[8].content_store 	hits[8] 	8549
scalar abilene_cost_network.node[8].content_store 	misses[8] 	104695
scalar abilene_cost_network.node[8].content_store 	decision_yes[8] 	5333
scalar abilene_cost_network.node[8].content_store 	decision_no[8] 	99362
scalar abilene_cost_network.node[8].content_store 	decision_ratio[8] 	0.050938440231148
scalar abilene_cost_network.node[9].core_layer 	interests[9] 	143972
scalar abilene_cost_network.node[9].core_layer 	data[9] 	134930
scalar abilene_cost_network.node[9].content_store 	p_hit[9] 	0.062803878531937
scalar abilene_cost_network.node[9].content_store 	hits[9] 	9042
scalar abilene_cost_network.node[9].content_store 	misses[9] 	134930
scalar abilene_cost_network.node[9].content_store 	decision_yes[9] 	6720
scalar abilene_cost_network.node[9].content_store 	decision_no[9] 	128210
scalar abilene_cost_network.node[9].content_store 	decision_ratio[9] 	0.049803601867635
scalar abilene_cost_network.node[10].core_layer 	interests[10] 	215350
scalar abilene_cost_network.node[10].core_layer 	data[10] 	150641
scalar abilene_cost_network.node[10].content_store 	p_hit[10] 	0.30048293475737
scalar abilene_cost_network.node[10].content_store 	hits[10] 	64709
scalar abilene_cost_network.node[10].content_store 	misses[10] 	150641
scalar abilene_cost_network.node[10].content_store 	decision_yes[10] 	7471
scalar abilene_cost_network.node[10].content_store 	decision_no[10] 	143170
scalar abilene_cost_network.node[10].content_store 	decision_ratio[10] 	0.049594731845912
scalar abilene_cost_network.node[11].core_layer 	interests[11] 	96366
scalar abilene_cost_network.node[11].core_layer 	repo_load[11] 	96366
scalar abilene_cost_network.node[11].core_layer 	data[11] 	0
scalar abilene_cost_network.node[11].content_store 	p_hit[11] 	0
scalar abilene_cost_network.node[11].content_store 	hits[11] 	0
scalar abilene_cost_network.node[11].content_store 	misses[11] 	96366
scalar abilene_cost_network.node[11].content_store 	decision_yes[11] 	0
scalar abilene_cost_network.node[11].content_store 	decision_no[11] 	96366
scalar abilene_cost_network.node[11].content_store 	decision_ratio[11] 	0
scalar abilene_cost_network.node[12].core_layer 	interests[12] 	88836
scalar abilene_cost_network.node[12].core_layer 	repo_load[12] 	88836
scalar abilene_cost_network.node[12].core_layer 	data[12] 	0
scalar abilene_cost_network.node[12].content_store 	p_hit[12] 	0
scalar abilene_cost_network.node[12].content_store 	hits[12] 	0
scalar abilene_cost_network.node[12].content_store 	misses[12] 	88836
scalar abilene_cost_network.node[12].content_store 	decision_yes[12] 	0
scalar abilene_cost_network.node[12].content_store 	decision_no[12] 	88836
scalar abilene_cost_network.node[12].content_store 	decision_ratio[12] 	0
scalar abilene_cost_network.node[13].core_layer 	interests[13] 	99059
scalar abilene_cost_network.node[13].core_layer 	repo_load[13] 	99059
scalar abilene_cost_network.node[13].core_layer 	data[13] 	0
scalar abilene_cost_network.node[13].content_store 	p_hit[13] 	0
scalar abilene_cost_network.node[13].content_store 	hits[13] 	0
scalar abilene_cost_network.node[13].content_store 	misses[13] 	99059
scalar abilene_cost_network.node[13].content_store 	decision_yes[13] 	0
scalar abilene_cost_network.node[13].content_store 	decision_no[13] 	99059
scalar abilene_cost_network.node[13].content_store 	decision_ratio[13] 	0
scalar abilene_cost_network.client[3] 	hdistance[3] 	2.6430127917228
scalar abilene_cost_network.client[3] 	downloads[3] 	180351
scalar abilene_cost_network.client[3] 	avg_time[3] 	0
scalar abilene_cost_network.client[3] 	interests_sent[3] 	180351
scalar abilene_cost_network.client[7] 	hdistance[7] 	2.6524456295309
scalar abilene_cost_network.client[7] 	downloads[7] 	180015
scalar abilene_cost_network.client[7] 	avg_time[7] 	0
scalar abilene_cost_network.client[7] 	interests_sent[7] 	180015
scalar abilene_cost_network.client[10] 	hdistance[10] 	2.4470439438597
scalar abilene_cost_network.client[10] 	downloads[10] 	179479
scalar abilene_cost_network.client[10] 	avg_time[10] 	0
scalar abilene_cost_network.client[10] 	interests_sent[10] 	179479
