version 2
run General-21-20140708-17:24:01-17227
attr D costprobtailcons
attr F spr
attr R lru
attr a 1
attr configname General
attr csize 1e3
attr ctlg 1e5
attr datetime 20140708-17:24:01
attr experiment General
attr inifile omnetpp.ini
attr iterationvars "$net=abilene_cost, $rep=11, $priceratiovalue=10, $weights=0.333_0.333_0.334, $lambda=100, $a=1, $ctlg=1e5, $F=spr, $ttl=1000, $D=costprobtailcons, $xi=1, $R=lru, $csize=1e3, $pricebits=0, $window=60, $variance=0.05, $mytime=1800"
attr iterationvars2 "$net=abilene_cost, $rep=11, $priceratiovalue=10, $weights=0.333_0.333_0.334, $lambda=100, $a=1, $ctlg=1e5, $F=spr, $ttl=1000, $D=costprobtailcons, $xi=1, $R=lru, $csize=1e3, $pricebits=0, $window=60, $variance=0.05, $mytime=1800, $repetition=0"
attr lambda 100
attr measurement "$net=abilene_cost, $rep=11, $priceratiovalue=10, $weights=0.333_0.333_0.334, $lambda=100, $a=1, $ctlg=1e5, $F=spr, $ttl=1000, $D=costprobtailcons, $xi=1, $R=lru, $csize=1e3, $pricebits=0, $window=60, $variance=0.05, $mytime=1800"
attr mytime 1800
attr net abilene_cost
attr network "networks.${net=abilene_cost, geant_cost}_network"
attr pricebits 0
attr priceratiovalue 10
attr processid 17227
attr rep 11
attr repetition 0
attr replication #0
attr resultdir results
attr runnumber 21
attr seedset 11
attr ttl 1000
attr variance 0.05
attr weights 0.333_0.333_0.334
attr window 60
attr xi 1

scalar . 	a 	1
scalar . 	csize 	1e3
scalar . 	ctlg 	1e5
scalar . 	lambda 	100
scalar . 	mytime 	1800
scalar . 	pricebits 	0
scalar . 	priceratiovalue 	10
scalar . 	rep 	11
scalar . 	ttl 	1000
scalar . 	variance 	0.05
scalar . 	window 	60
scalar . 	xi 	1
scalar abilene_cost_network.content_distribution 	repo-0 	11
scalar abilene_cost_network.content_distribution 	repo-1 	12
scalar abilene_cost_network.content_distribution 	repo-2 	13
scalar abilene_cost_network.content_distribution 	client-0 	5
scalar abilene_cost_network.content_distribution 	client-1 	0
scalar abilene_cost_network.content_distribution 	client-2 	9
scalar abilene_cost_network.content_distribution 	repo-0_card 	33093
scalar abilene_cost_network.content_distribution 	repo-1_card 	33554
scalar abilene_cost_network.content_distribution 	repo-2_card 	33353
scalar abilene_cost_network.statistics 	repo_popularity[0] 	0.39172976570124
scalar abilene_cost_network.statistics 	repo_popularity[1] 	0.31007949205523
scalar abilene_cost_network.statistics 	repo_popularity[2] 	0.29819074224352
scalar abilene_cost_network.statistics 	stabilization_time 	64.7
scalar abilene_cost_network.node[1].face$o[4].channel 	price[1] 	0
scalar abilene_cost_network.node[1].face$o[4].channel 	represented_price[1] 	0
scalar abilene_cost_network.node[7].face$o[4].channel 	price[7] 	0
scalar abilene_cost_network.node[7].face$o[4].channel 	represented_price[7] 	0
scalar abilene_cost_network.node[10].face$o[4].channel 	price[10] 	0
scalar abilene_cost_network.node[10].face$o[4].channel 	represented_price[10] 	0
scalar abilene_cost_network.node[11].face$o[1].channel 	price[11] 	0
scalar abilene_cost_network.node[11].face$o[1].channel 	represented_price[11] 	0
scalar abilene_cost_network.node[12].face$o[1].channel 	price[12] 	1
scalar abilene_cost_network.node[12].face$o[1].channel 	represented_price[12] 	1
scalar abilene_cost_network.node[13].face$o[1].channel 	price[13] 	10
scalar abilene_cost_network.node[13].face$o[1].channel 	represented_price[13] 	10
scalar abilene_cost_network.statistics 	p_hit 	0.078145577574083
scalar abilene_cost_network.statistics 	interests 	146983
scalar abilene_cost_network.statistics 	data 	108361.07142857
scalar abilene_cost_network.statistics 	hdistance 	3.5470672267853
scalar abilene_cost_network.statistics 	avg_time 	0.013851984364
scalar abilene_cost_network.statistics 	downloads 	533611
scalar abilene_cost_network.statistics 	total_cost 	891834
scalar abilene_cost_network.statistics 	total_replicas 	100000
scalar abilene_cost_network.statistics 	inner_hit 	0.30135060933901
scalar abilene_cost_network.statistics 	interests_sent 	540697
scalar abilene_cost_network.node[0].core_layer 	interests[0] 	180385
scalar abilene_cost_network.node[0].core_layer 	data[0] 	163920
scalar abilene_cost_network.node[0].core_layer 	repo_int[0] 	372807
scalar abilene_cost_network.node[0].content_store 	p_hit[0] 	0.081475732461125
scalar abilene_cost_network.node[0].content_store 	hits[0] 	14697
scalar abilene_cost_network.node[0].content_store 	misses[0] 	165688
scalar abilene_cost_network.node[0].content_store 	decision_yes[0] 	120
scalar abilene_cost_network.node[0].content_store 	decision_no[0] 	163800
scalar abilene_cost_network.node[0].content_store 	decision_ratio[0] 	0.00073206442166911
scalar abilene_cost_network.node[0].content_store 	correction_factor[0] 	7.9861798650322e-317
scalar abilene_cost_network.node[0].content_store 	xi[0] 	1
scalar abilene_cost_network.node[1].core_layer 	interests[1] 	241330
scalar abilene_cost_network.node[1].core_layer 	data[1] 	196805
scalar abilene_cost_network.node[1].content_store 	p_hit[1] 	0.18449011726681
scalar abilene_cost_network.node[1].content_store 	hits[1] 	44523
scalar abilene_cost_network.node[1].content_store 	misses[1] 	196807
scalar abilene_cost_network.node[1].content_store 	decision_yes[1] 	16
scalar abilene_cost_network.node[1].content_store 	decision_no[1] 	196789
scalar abilene_cost_network.node[1].content_store 	decision_ratio[1] 	8.1298747491171e-05
scalar abilene_cost_network.node[1].content_store 	correction_factor[1] 	7.9878083054009e-317
scalar abilene_cost_network.node[1].content_store 	xi[1] 	1
scalar abilene_cost_network.node[2].core_layer 	interests[2] 	154717
scalar abilene_cost_network.node[2].core_layer 	data[2] 	153558
scalar abilene_cost_network.node[2].content_store 	p_hit[2] 	0.0074781698197354
scalar abilene_cost_network.node[2].content_store 	hits[2] 	1157
scalar abilene_cost_network.node[2].content_store 	misses[2] 	153560
scalar abilene_cost_network.node[2].content_store 	decision_yes[2] 	0
scalar abilene_cost_network.node[2].content_store 	decision_no[2] 	153558
scalar abilene_cost_network.node[2].content_store 	decision_ratio[2] 	0
scalar abilene_cost_network.node[2].content_store 	correction_factor[2] 	7.9832154711572e-317
scalar abilene_cost_network.node[2].content_store 	xi[2] 	1
scalar abilene_cost_network.node[3].core_layer 	interests[3] 	153561
scalar abilene_cost_network.node[3].core_layer 	data[3] 	153558
scalar abilene_cost_network.node[3].content_store 	p_hit[3] 	0
scalar abilene_cost_network.node[3].content_store 	hits[3] 	0
scalar abilene_cost_network.node[3].content_store 	misses[3] 	153561
scalar abilene_cost_network.node[3].content_store 	decision_yes[3] 	0
scalar abilene_cost_network.node[3].content_store 	decision_no[3] 	153558
scalar abilene_cost_network.node[3].content_store 	decision_ratio[3] 	0
scalar abilene_cost_network.node[3].content_store 	correction_factor[3] 	7.9853498347472e-317
scalar abilene_cost_network.node[3].content_store 	xi[3] 	1
scalar abilene_cost_network.node[4].core_layer 	interests[4] 	106551
scalar abilene_cost_network.node[4].core_layer 	data[4] 	104753
scalar abilene_cost_network.node[4].content_store 	p_hit[4] 	0.016855777984252
scalar abilene_cost_network.node[4].content_store 	hits[4] 	1796
scalar abilene_cost_network.node[4].content_store 	misses[4] 	104755
scalar abilene_cost_network.node[4].content_store 	decision_yes[4] 	0
scalar abilene_cost_network.node[4].content_store 	decision_no[4] 	104753
scalar abilene_cost_network.node[4].content_store 	decision_ratio[4] 	0
scalar abilene_cost_network.node[4].content_store 	correction_factor[4] 	7.991911026524e-317
scalar abilene_cost_network.node[4].content_store 	xi[4] 	1
scalar abilene_cost_network.node[5].core_layer 	interests[5] 	180329
scalar abilene_cost_network.node[5].core_layer 	data[5] 	152314
scalar abilene_cost_network.node[5].content_store 	p_hit[5] 	0.13215289831364
scalar abilene_cost_network.node[5].content_store 	hits[5] 	23831
scalar abilene_cost_network.node[5].content_store 	misses[5] 	156498
scalar abilene_cost_network.node[5].content_store 	decision_yes[5] 	109
scalar abilene_cost_network.node[5].content_store 	decision_no[5] 	152205
scalar abilene_cost_network.node[5].content_store 	decision_ratio[5] 	0.00071562692858175
scalar abilene_cost_network.node[5].content_store 	correction_factor[5] 	7.9899268588903e-317
scalar abilene_cost_network.node[5].content_store 	xi[5] 	1
scalar abilene_cost_network.node[6].core_layer 	interests[6] 	45765
scalar abilene_cost_network.node[6].core_layer 	data[6] 	43375
scalar abilene_cost_network.node[6].content_store 	p_hit[6] 	0.052223314760188
scalar abilene_cost_network.node[6].content_store 	hits[6] 	2390
scalar abilene_cost_network.node[6].content_store 	misses[6] 	43375
scalar abilene_cost_network.node[6].content_store 	decision_yes[6] 	0
scalar abilene_cost_network.node[6].content_store 	decision_no[6] 	43375
scalar abilene_cost_network.node[6].content_store 	decision_ratio[6] 	0
scalar abilene_cost_network.node[6].content_store 	correction_factor[6] 	7.9835079580195e-317
scalar abilene_cost_network.node[6].content_store 	xi[6] 	1
scalar abilene_cost_network.node[7].core_layer 	interests[7] 	141520
scalar abilene_cost_network.node[7].core_layer 	data[7] 	86474
scalar abilene_cost_network.node[7].content_store 	p_hit[7] 	0.38896269078575
scalar abilene_cost_network.node[7].content_store 	hits[7] 	55046
scalar abilene_cost_network.node[7].content_store 	misses[7] 	86474
scalar abilene_cost_network.node[7].content_store 	decision_yes[7] 	70
scalar abilene_cost_network.node[7].content_store 	decision_no[7] 	86404
scalar abilene_cost_network.node[7].content_store 	decision_ratio[7] 	0.00080949187038879
scalar abilene_cost_network.node[7].content_store 	correction_factor[7] 	7.9861087195792e-317
scalar abilene_cost_network.node[7].content_store 	xi[7] 	1
scalar abilene_cost_network.node[8].core_layer 	interests[8] 	51556
scalar abilene_cost_network.node[8].core_layer 	data[8] 	49339
scalar abilene_cost_network.node[8].content_store 	p_hit[8] 	0.043001784467375
scalar abilene_cost_network.node[8].content_store 	hits[8] 	2217
scalar abilene_cost_network.node[8].content_store 	misses[8] 	49339
scalar abilene_cost_network.node[8].content_store 	decision_yes[8] 	0
scalar abilene_cost_network.node[8].content_store 	decision_no[8] 	49339
scalar abilene_cost_network.node[8].content_store 	decision_ratio[8] 	0
scalar abilene_cost_network.node[8].content_store 	correction_factor[8] 	7.9918319760207e-317
scalar abilene_cost_network.node[8].content_store 	xi[8] 	1
scalar abilene_cost_network.node[9].core_layer 	interests[9] 	179983
scalar abilene_cost_network.node[9].core_layer 	data[9] 	165152
scalar abilene_cost_network.node[9].content_store 	p_hit[9] 	0.076101631820783
scalar abilene_cost_network.node[9].content_store 	hits[9] 	13697
scalar abilene_cost_network.node[9].content_store 	misses[9] 	166286
scalar abilene_cost_network.node[9].content_store 	decision_yes[9] 	90
scalar abilene_cost_network.node[9].content_store 	decision_no[9] 	165062
scalar abilene_cost_network.node[9].content_store 	decision_ratio[9] 	0.00054495252857973
scalar abilene_cost_network.node[9].content_store 	correction_factor[9] 	8.0072823968974e-317
scalar abilene_cost_network.node[9].content_store 	xi[9] 	1
scalar abilene_cost_network.node[10].core_layer 	interests[10] 	249258
scalar abilene_cost_network.node[10].core_layer 	data[10] 	247807
scalar abilene_cost_network.node[10].content_store 	p_hit[10] 	0.0058212775517737
scalar abilene_cost_network.node[10].content_store 	hits[10] 	1451
scalar abilene_cost_network.node[10].content_store 	misses[10] 	247807
scalar abilene_cost_network.node[10].content_store 	decision_yes[10] 	0
scalar abilene_cost_network.node[10].content_store 	decision_no[10] 	247807
scalar abilene_cost_network.node[10].content_store 	decision_ratio[10] 	0
scalar abilene_cost_network.node[10].content_store 	correction_factor[10] 	7.9974682769084e-317
scalar abilene_cost_network.node[10].content_store 	xi[10] 	1
scalar abilene_cost_network.node[11].core_layer 	interests[11] 	205797
scalar abilene_cost_network.node[11].core_layer 	repo_load[11] 	205797
scalar abilene_cost_network.node[11].core_layer 	data[11] 	0
scalar abilene_cost_network.node[11].content_store 	p_hit[11] 	0
scalar abilene_cost_network.node[11].content_store 	hits[11] 	0
scalar abilene_cost_network.node[11].content_store 	misses[11] 	205797
scalar abilene_cost_network.node[11].content_store 	decision_yes[11] 	0
scalar abilene_cost_network.node[11].content_store 	decision_no[11] 	205797
scalar abilene_cost_network.node[11].content_store 	decision_ratio[11] 	0
scalar abilene_cost_network.node[12].core_layer 	interests[12] 	86474
scalar abilene_cost_network.node[12].core_layer 	repo_load[12] 	86474
scalar abilene_cost_network.node[12].core_layer 	data[12] 	0
scalar abilene_cost_network.node[12].content_store 	p_hit[12] 	0
scalar abilene_cost_network.node[12].content_store 	hits[12] 	0
scalar abilene_cost_network.node[12].content_store 	misses[12] 	86474
scalar abilene_cost_network.node[12].content_store 	decision_yes[12] 	0
scalar abilene_cost_network.node[12].content_store 	decision_no[12] 	86474
scalar abilene_cost_network.node[12].content_store 	decision_ratio[12] 	0
scalar abilene_cost_network.node[13].core_layer 	interests[13] 	80536
scalar abilene_cost_network.node[13].core_layer 	repo_load[13] 	80536
scalar abilene_cost_network.node[13].core_layer 	data[13] 	0
scalar abilene_cost_network.node[13].content_store 	p_hit[13] 	0
scalar abilene_cost_network.node[13].content_store 	hits[13] 	0
scalar abilene_cost_network.node[13].content_store 	misses[13] 	80536
scalar abilene_cost_network.node[13].content_store 	decision_yes[13] 	0
scalar abilene_cost_network.node[13].content_store 	decision_no[13] 	80536
scalar abilene_cost_network.node[13].content_store 	decision_ratio[13] 	0
scalar abilene_cost_network.client[0] 	hdistance[0] 	3.1533056763914
scalar abilene_cost_network.client[0] 	downloads[0] 	178617
scalar abilene_cost_network.client[0] 	avg_time[0] 	0.012943815834
scalar abilene_cost_network.client[0] 	interests_sent[0] 	180385
scalar abilene_cost_network.client[5] 	hdistance[5] 	4.651151040336
scalar abilene_cost_network.client[5] 	downloads[5] 	176145
scalar abilene_cost_network.client[5] 	avg_time[5] 	0.01782668452
scalar abilene_cost_network.client[5] 	interests_sent[5] 	180329
scalar abilene_cost_network.client[9] 	hdistance[9] 	2.8367449636286
scalar abilene_cost_network.client[9] 	downloads[9] 	178849
scalar abilene_cost_network.client[9] 	avg_time[9] 	0.01078545274
scalar abilene_cost_network.client[9] 	interests_sent[9] 	179983
