version 2
run General-37-20140708-17:25:55-17243
attr D costprobtailcons
attr F spr
attr R lru
attr a 1
attr configname General
attr csize 1e3
attr ctlg 1e5
attr datetime 20140708-17:25:55
attr experiment General
attr inifile omnetpp.ini
attr iterationvars "$net=abilene_cost, $rep=19, $priceratiovalue=10, $weights=0.333_0.333_0.334, $lambda=100, $a=1, $ctlg=1e5, $F=spr, $ttl=1000, $D=costprobtailcons, $xi=1, $R=lru, $csize=1e3, $pricebits=0, $window=60, $variance=0.05, $mytime=1800"
attr iterationvars2 "$net=abilene_cost, $rep=19, $priceratiovalue=10, $weights=0.333_0.333_0.334, $lambda=100, $a=1, $ctlg=1e5, $F=spr, $ttl=1000, $D=costprobtailcons, $xi=1, $R=lru, $csize=1e3, $pricebits=0, $window=60, $variance=0.05, $mytime=1800, $repetition=0"
attr lambda 100
attr measurement "$net=abilene_cost, $rep=19, $priceratiovalue=10, $weights=0.333_0.333_0.334, $lambda=100, $a=1, $ctlg=1e5, $F=spr, $ttl=1000, $D=costprobtailcons, $xi=1, $R=lru, $csize=1e3, $pricebits=0, $window=60, $variance=0.05, $mytime=1800"
attr mytime 1800
attr net abilene_cost
attr network "networks.${net=abilene_cost, geant_cost}_network"
attr pricebits 0
attr priceratiovalue 10
attr processid 17243
attr rep 19
attr repetition 0
attr replication #0
attr resultdir results
attr runnumber 37
attr seedset 19
attr ttl 1000
attr variance 0.05
attr weights 0.333_0.333_0.334
attr window 60
attr xi 1

scalar . 	a 	1
scalar . 	csize 	1e3
scalar . 	ctlg 	1e5
scalar . 	lambda 	100
scalar . 	mytime 	1800
scalar . 	pricebits 	0
scalar . 	priceratiovalue 	10
scalar . 	rep 	19
scalar . 	ttl 	1000
scalar . 	variance 	0.05
scalar . 	window 	60
scalar . 	xi 	1
scalar abilene_cost_network.content_distribution 	repo-0 	11
scalar abilene_cost_network.content_distribution 	repo-1 	12
scalar abilene_cost_network.content_distribution 	repo-2 	13
scalar abilene_cost_network.content_distribution 	client-0 	5
scalar abilene_cost_network.content_distribution 	client-1 	0
scalar abilene_cost_network.content_distribution 	client-2 	9
scalar abilene_cost_network.content_distribution 	repo-0_card 	33368
scalar abilene_cost_network.content_distribution 	repo-1_card 	33389
scalar abilene_cost_network.content_distribution 	repo-2_card 	33243
scalar abilene_cost_network.statistics 	repo_popularity[0] 	0.2704974433948
scalar abilene_cost_network.statistics 	repo_popularity[1] 	0.39472808551936
scalar abilene_cost_network.statistics 	repo_popularity[2] 	0.33477447108584
scalar abilene_cost_network.statistics 	stabilization_time 	64.8
scalar abilene_cost_network.node[1].face$o[4].channel 	price[1] 	0
scalar abilene_cost_network.node[1].face$o[4].channel 	represented_price[1] 	0
scalar abilene_cost_network.node[7].face$o[4].channel 	price[7] 	0
scalar abilene_cost_network.node[7].face$o[4].channel 	represented_price[7] 	0
scalar abilene_cost_network.node[10].face$o[4].channel 	price[10] 	0
scalar abilene_cost_network.node[10].face$o[4].channel 	represented_price[10] 	0
scalar abilene_cost_network.node[11].face$o[1].channel 	price[11] 	0
scalar abilene_cost_network.node[11].face$o[1].channel 	represented_price[11] 	0
scalar abilene_cost_network.node[12].face$o[1].channel 	price[12] 	1
scalar abilene_cost_network.node[12].face$o[1].channel 	represented_price[12] 	1
scalar abilene_cost_network.node[13].face$o[1].channel 	price[13] 	10
scalar abilene_cost_network.node[13].face$o[1].channel 	represented_price[13] 	10
scalar abilene_cost_network.statistics 	p_hit 	0.11269673783435
scalar abilene_cost_network.statistics 	interests 	140533.28571429
scalar abilene_cost_network.statistics 	data 	101977.14285714
scalar abilene_cost_network.statistics 	hdistance 	3.2609938961612
scalar abilene_cost_network.statistics 	avg_time 	0.013507647719
scalar abilene_cost_network.statistics 	downloads 	533617
scalar abilene_cost_network.statistics 	total_cost 	877612
scalar abilene_cost_network.statistics 	total_replicas 	100000
scalar abilene_cost_network.statistics 	inner_hit 	0.41551899583409
scalar abilene_cost_network.statistics 	interests_sent 	539789
scalar abilene_cost_network.node[0].core_layer 	interests[0] 	179372
scalar abilene_cost_network.node[0].core_layer 	data[0] 	156041
scalar abilene_cost_network.node[0].core_layer 	repo_int[0] 	311889
scalar abilene_cost_network.node[0].content_store 	p_hit[0] 	0.1117175478893
scalar abilene_cost_network.node[0].content_store 	hits[0] 	20039
scalar abilene_cost_network.node[0].content_store 	misses[0] 	159333
scalar abilene_cost_network.node[0].content_store 	decision_yes[0] 	115
scalar abilene_cost_network.node[0].content_store 	decision_no[0] 	155926
scalar abilene_cost_network.node[0].content_store 	decision_ratio[0] 	0.00073698579219564
scalar abilene_cost_network.node[0].content_store 	correction_factor[0] 	1.9792404158256e-316
scalar abilene_cost_network.node[0].content_store 	xi[0] 	1
scalar abilene_cost_network.node[1].core_layer 	interests[1] 	245167
scalar abilene_cost_network.node[1].core_layer 	data[1] 	190367
scalar abilene_cost_network.node[1].content_store 	p_hit[1] 	0.22352111010046
scalar abilene_cost_network.node[1].content_store 	hits[1] 	54800
scalar abilene_cost_network.node[1].content_store 	misses[1] 	190367
scalar abilene_cost_network.node[1].content_store 	decision_yes[1] 	48
scalar abilene_cost_network.node[1].content_store 	decision_no[1] 	190319
scalar abilene_cost_network.node[1].content_store 	decision_ratio[1] 	0.00025214454185862
scalar abilene_cost_network.node[1].content_store 	correction_factor[1] 	1.9794032598625e-316
scalar abilene_cost_network.node[1].content_store 	xi[1] 	1
scalar abilene_cost_network.node[2].core_layer 	interests[2] 	152713
scalar abilene_cost_network.node[2].core_layer 	data[2] 	148473
scalar abilene_cost_network.node[2].content_store 	p_hit[2] 	0.027764499420482
scalar abilene_cost_network.node[2].content_store 	hits[2] 	4240
scalar abilene_cost_network.node[2].content_store 	misses[2] 	148473
scalar abilene_cost_network.node[2].content_store 	decision_yes[2] 	0
scalar abilene_cost_network.node[2].content_store 	decision_no[2] 	148473
scalar abilene_cost_network.node[2].content_store 	decision_ratio[2] 	0
scalar abilene_cost_network.node[2].content_store 	correction_factor[2] 	1.9789439764381e-316
scalar abilene_cost_network.node[2].content_store 	xi[2] 	1
scalar abilene_cost_network.node[3].core_layer 	interests[3] 	148474
scalar abilene_cost_network.node[3].core_layer 	data[3] 	148473
scalar abilene_cost_network.node[3].content_store 	p_hit[3] 	0
scalar abilene_cost_network.node[3].content_store 	hits[3] 	0
scalar abilene_cost_network.node[3].content_store 	misses[3] 	148474
scalar abilene_cost_network.node[3].content_store 	decision_yes[3] 	0
scalar abilene_cost_network.node[3].content_store 	decision_no[3] 	148473
scalar abilene_cost_network.node[3].content_store 	decision_ratio[3] 	0
scalar abilene_cost_network.node[3].content_store 	correction_factor[3] 	1.9791574127971e-316
scalar abilene_cost_network.node[3].content_store 	xi[3] 	1
scalar abilene_cost_network.node[4].core_layer 	interests[4] 	92454
scalar abilene_cost_network.node[4].core_layer 	data[4] 	90190
scalar abilene_cost_network.node[4].content_store 	p_hit[4] 	0.02449866960867
scalar abilene_cost_network.node[4].content_store 	hits[4] 	2265
scalar abilene_cost_network.node[4].content_store 	misses[4] 	90189
scalar abilene_cost_network.node[4].content_store 	decision_yes[4] 	0
scalar abilene_cost_network.node[4].content_store 	decision_no[4] 	90190
scalar abilene_cost_network.node[4].content_store 	decision_ratio[4] 	0
scalar abilene_cost_network.node[4].content_store 	correction_factor[4] 	1.9798135319748e-316
scalar abilene_cost_network.node[4].content_store 	xi[4] 	1
scalar abilene_cost_network.node[5].core_layer 	interests[5] 	179953
scalar abilene_cost_network.node[5].core_layer 	data[5] 	154879
scalar abilene_cost_network.node[5].content_store 	p_hit[5] 	0.12932265647141
scalar abilene_cost_network.node[5].content_store 	hits[5] 	23272
scalar abilene_cost_network.node[5].content_store 	misses[5] 	156681
scalar abilene_cost_network.node[5].content_store 	decision_yes[5] 	113
scalar abilene_cost_network.node[5].content_store 	decision_no[5] 	154766
scalar abilene_cost_network.node[5].content_store 	decision_ratio[5] 	0.00072960181819356
scalar abilene_cost_network.node[5].content_store 	correction_factor[5] 	1.9796151152114e-316
scalar abilene_cost_network.node[5].content_store 	xi[5] 	1
scalar abilene_cost_network.node[6].core_layer 	interests[6] 	62423
scalar abilene_cost_network.node[6].core_layer 	data[6] 	60124
scalar abilene_cost_network.node[6].content_store 	p_hit[6] 	0.036845393524823
scalar abilene_cost_network.node[6].content_store 	hits[6] 	2300
scalar abilene_cost_network.node[6].content_store 	misses[6] 	60123
scalar abilene_cost_network.node[6].content_store 	decision_yes[6] 	0
scalar abilene_cost_network.node[6].content_store 	decision_no[6] 	60124
scalar abilene_cost_network.node[6].content_store 	decision_ratio[6] 	0
scalar abilene_cost_network.node[6].content_store 	correction_factor[6] 	1.9789732251243e-316
scalar abilene_cost_network.node[6].content_store 	xi[6] 	1
scalar abilene_cost_network.node[7].core_layer 	interests[7] 	167951
scalar abilene_cost_network.node[7].core_layer 	data[7] 	86762
scalar abilene_cost_network.node[7].content_store 	p_hit[7] 	0.48340885139118
scalar abilene_cost_network.node[7].content_store 	hits[7] 	81189
scalar abilene_cost_network.node[7].content_store 	misses[7] 	86762
scalar abilene_cost_network.node[7].content_store 	decision_yes[7] 	85
scalar abilene_cost_network.node[7].content_store 	decision_no[7] 	86677
scalar abilene_cost_network.node[7].content_store 	decision_ratio[7] 	0.00097969157004218
scalar abilene_cost_network.node[7].content_store 	correction_factor[7] 	1.9792333012803e-316
scalar abilene_cost_network.node[7].content_store 	xi[7] 	1
scalar abilene_cost_network.node[8].core_layer 	interests[8] 	51207
scalar abilene_cost_network.node[8].core_layer 	data[8] 	49543
scalar abilene_cost_network.node[8].content_store 	p_hit[8] 	0.032495557248032
scalar abilene_cost_network.node[8].content_store 	hits[8] 	1664
scalar abilene_cost_network.node[8].content_store 	misses[8] 	49543
scalar abilene_cost_network.node[8].content_store 	decision_yes[8] 	0
scalar abilene_cost_network.node[8].content_store 	decision_no[8] 	49543
scalar abilene_cost_network.node[8].content_store 	decision_ratio[8] 	0
scalar abilene_cost_network.node[8].content_store 	correction_factor[8] 	1.9798056269244e-316
scalar abilene_cost_network.node[8].content_store 	xi[8] 	1
scalar abilene_cost_network.node[9].core_layer 	interests[9] 	180464
scalar abilene_cost_network.node[9].core_layer 	data[9] 	149329
scalar abilene_cost_network.node[9].content_store 	p_hit[9] 	0.16655399414842
scalar abilene_cost_network.node[9].content_store 	hits[9] 	30057
scalar abilene_cost_network.node[9].content_store 	misses[9] 	150407
scalar abilene_cost_network.node[9].content_store 	decision_yes[9] 	187
scalar abilene_cost_network.node[9].content_store 	decision_no[9] 	149142
scalar abilene_cost_network.node[9].content_store 	decision_ratio[9] 	0.001252268481005
scalar abilene_cost_network.node[9].content_store 	correction_factor[9] 	1.9813506690121e-316
scalar abilene_cost_network.node[9].content_store 	xi[9] 	1
scalar abilene_cost_network.node[10].core_layer 	interests[10] 	195399
scalar abilene_cost_network.node[10].core_layer 	data[10] 	193499
scalar abilene_cost_network.node[10].content_store 	p_hit[10] 	0.0097288113040497
scalar abilene_cost_network.node[10].content_store 	hits[10] 	1901
scalar abilene_cost_network.node[10].content_store 	misses[10] 	193498
scalar abilene_cost_network.node[10].content_store 	decision_yes[10] 	0
scalar abilene_cost_network.node[10].content_store 	decision_no[10] 	193499
scalar abilene_cost_network.node[10].content_store 	decision_ratio[10] 	0
scalar abilene_cost_network.node[10].content_store 	correction_factor[10] 	1.9803692570132e-316
scalar abilene_cost_network.node[10].content_store 	xi[10] 	1
scalar abilene_cost_network.node[11].core_layer 	interests[11] 	146042
scalar abilene_cost_network.node[11].core_layer 	repo_load[11] 	146042
scalar abilene_cost_network.node[11].core_layer 	data[11] 	0
scalar abilene_cost_network.node[11].content_store 	p_hit[11] 	0
scalar abilene_cost_network.node[11].content_store 	hits[11] 	0
scalar abilene_cost_network.node[11].content_store 	misses[11] 	146042
scalar abilene_cost_network.node[11].content_store 	decision_yes[11] 	0
scalar abilene_cost_network.node[11].content_store 	decision_no[11] 	146042
scalar abilene_cost_network.node[11].content_store 	decision_ratio[11] 	0
scalar abilene_cost_network.node[12].core_layer 	interests[12] 	86762
scalar abilene_cost_network.node[12].core_layer 	repo_load[12] 	86762
scalar abilene_cost_network.node[12].core_layer 	data[12] 	0
scalar abilene_cost_network.node[12].content_store 	p_hit[12] 	0
scalar abilene_cost_network.node[12].content_store 	hits[12] 	0
scalar abilene_cost_network.node[12].content_store 	misses[12] 	86762
scalar abilene_cost_network.node[12].content_store 	decision_yes[12] 	0
scalar abilene_cost_network.node[12].content_store 	decision_no[12] 	86762
scalar abilene_cost_network.node[12].content_store 	decision_ratio[12] 	0
scalar abilene_cost_network.node[13].core_layer 	interests[13] 	79085
scalar abilene_cost_network.node[13].core_layer 	repo_load[13] 	79085
scalar abilene_cost_network.node[13].core_layer 	data[13] 	0
scalar abilene_cost_network.node[13].content_store 	p_hit[13] 	0
scalar abilene_cost_network.node[13].content_store 	hits[13] 	0
scalar abilene_cost_network.node[13].content_store 	misses[13] 	79085
scalar abilene_cost_network.node[13].content_store 	decision_yes[13] 	0
scalar abilene_cost_network.node[13].content_store 	decision_no[13] 	79085
scalar abilene_cost_network.node[13].content_store 	decision_ratio[13] 	0
scalar abilene_cost_network.client[0] 	hdistance[0] 	3.0911915038619
scalar abilene_cost_network.client[0] 	downloads[0] 	176080
scalar abilene_cost_network.client[0] 	avg_time[0] 	0.014015463271
scalar abilene_cost_network.client[0] 	interests_sent[0] 	179372
scalar abilene_cost_network.client[5] 	hdistance[5] 	4.1631368894928
scalar abilene_cost_network.client[5] 	downloads[5] 	178151
scalar abilene_cost_network.client[5] 	avg_time[5] 	0.015743162976
scalar abilene_cost_network.client[5] 	interests_sent[5] 	179953
scalar abilene_cost_network.client[9] 	hdistance[9] 	2.5286532951289
scalar abilene_cost_network.client[9] 	downloads[9] 	179386
scalar abilene_cost_network.client[9] 	avg_time[9] 	0.01076431691
scalar abilene_cost_network.client[9] 	interests_sent[9] 	180464
