version 2
run General-23-20140708-17:24:15-17229
attr D costprobtailcons
attr F spr
attr R lru
attr a 1
attr configname General
attr csize 1e3
attr ctlg 1e5
attr datetime 20140708-17:24:15
attr experiment General
attr inifile omnetpp.ini
attr iterationvars "$net=abilene_cost, $rep=12, $priceratiovalue=10, $weights=0.333_0.333_0.334, $lambda=100, $a=1, $ctlg=1e5, $F=spr, $ttl=1000, $D=costprobtailcons, $xi=1, $R=lru, $csize=1e3, $pricebits=0, $window=60, $variance=0.05, $mytime=1800"
attr iterationvars2 "$net=abilene_cost, $rep=12, $priceratiovalue=10, $weights=0.333_0.333_0.334, $lambda=100, $a=1, $ctlg=1e5, $F=spr, $ttl=1000, $D=costprobtailcons, $xi=1, $R=lru, $csize=1e3, $pricebits=0, $window=60, $variance=0.05, $mytime=1800, $repetition=0"
attr lambda 100
attr measurement "$net=abilene_cost, $rep=12, $priceratiovalue=10, $weights=0.333_0.333_0.334, $lambda=100, $a=1, $ctlg=1e5, $F=spr, $ttl=1000, $D=costprobtailcons, $xi=1, $R=lru, $csize=1e3, $pricebits=0, $window=60, $variance=0.05, $mytime=1800"
attr mytime 1800
attr net abilene_cost
attr network "networks.${net=abilene_cost, geant_cost}_network"
attr pricebits 0
attr priceratiovalue 10
attr processid 17229
attr rep 12
attr repetition 0
attr replication #0
attr resultdir results
attr runnumber 23
attr seedset 12
attr ttl 1000
attr variance 0.05
attr weights 0.333_0.333_0.334
attr window 60
attr xi 1

scalar . 	a 	1
scalar . 	csize 	1e3
scalar . 	ctlg 	1e5
scalar . 	lambda 	100
scalar . 	mytime 	1800
scalar . 	pricebits 	0
scalar . 	priceratiovalue 	10
scalar . 	rep 	12
scalar . 	ttl 	1000
scalar . 	variance 	0.05
scalar . 	window 	60
scalar . 	xi 	1
scalar abilene_cost_network.content_distribution 	repo-0 	11
scalar abilene_cost_network.content_distribution 	repo-1 	12
scalar abilene_cost_network.content_distribution 	repo-2 	13
scalar abilene_cost_network.content_distribution 	client-0 	5
scalar abilene_cost_network.content_distribution 	client-1 	0
scalar abilene_cost_network.content_distribution 	client-2 	9
scalar abilene_cost_network.content_distribution 	repo-0_card 	33376
scalar abilene_cost_network.content_distribution 	repo-1_card 	33439
scalar abilene_cost_network.content_distribution 	repo-2_card 	33185
scalar abilene_cost_network.statistics 	repo_popularity[0] 	0.3146103286495
scalar abilene_cost_network.statistics 	repo_popularity[1] 	0.33182472258399
scalar abilene_cost_network.statistics 	repo_popularity[2] 	0.35356494876651
scalar abilene_cost_network.statistics 	stabilization_time 	65.3
scalar abilene_cost_network.node[1].face$o[4].channel 	price[1] 	0
scalar abilene_cost_network.node[1].face$o[4].channel 	represented_price[1] 	0
scalar abilene_cost_network.node[7].face$o[4].channel 	price[7] 	0
scalar abilene_cost_network.node[7].face$o[4].channel 	represented_price[7] 	0
scalar abilene_cost_network.node[10].face$o[4].channel 	price[10] 	0
scalar abilene_cost_network.node[10].face$o[4].channel 	represented_price[10] 	0
scalar abilene_cost_network.node[11].face$o[1].channel 	price[11] 	0
scalar abilene_cost_network.node[11].face$o[1].channel 	represented_price[11] 	0
scalar abilene_cost_network.node[12].face$o[1].channel 	price[12] 	1
scalar abilene_cost_network.node[12].face$o[1].channel 	represented_price[12] 	1
scalar abilene_cost_network.node[13].face$o[1].channel 	price[13] 	10
scalar abilene_cost_network.node[13].face$o[1].channel 	represented_price[13] 	10
scalar abilene_cost_network.statistics 	p_hit 	0.095881624446804
scalar abilene_cost_network.statistics 	interests 	143210.07142857
scalar abilene_cost_network.statistics 	data 	104655.14285714
scalar abilene_cost_network.statistics 	hdistance 	3.3912573238949
scalar abilene_cost_network.statistics 	avg_time 	0.013580044216
scalar abilene_cost_network.statistics 	downloads 	533369
scalar abilene_cost_network.statistics 	total_cost 	912874
scalar abilene_cost_network.statistics 	total_replicas 	100000
scalar abilene_cost_network.statistics 	inner_hit 	0.36041652214508
scalar abilene_cost_network.statistics 	interests_sent 	539765
scalar abilene_cost_network.node[0].core_layer 	interests[0] 	179248
scalar abilene_cost_network.node[0].core_layer 	data[0] 	145262
scalar abilene_cost_network.node[0].core_layer 	repo_int[0] 	341134
scalar abilene_cost_network.node[0].content_store 	p_hit[0] 	0.1858040257074
scalar abilene_cost_network.node[0].content_store 	hits[0] 	33305
scalar abilene_cost_network.node[0].content_store 	misses[0] 	145943
scalar abilene_cost_network.node[0].content_store 	decision_yes[0] 	150
scalar abilene_cost_network.node[0].content_store 	decision_no[0] 	145112
scalar abilene_cost_network.node[0].content_store 	decision_ratio[0] 	0.0010326169266567
scalar abilene_cost_network.node[0].content_store 	correction_factor[0] 	1.9976560210824e-316
scalar abilene_cost_network.node[0].content_store 	xi[0] 	1
scalar abilene_cost_network.node[1].core_layer 	interests[1] 	241300
scalar abilene_cost_network.node[1].core_layer 	data[1] 	185775
scalar abilene_cost_network.node[1].content_store 	p_hit[1] 	0.23010774968918
scalar abilene_cost_network.node[1].content_store 	hits[1] 	55525
scalar abilene_cost_network.node[1].content_store 	misses[1] 	185775
scalar abilene_cost_network.node[1].content_store 	decision_yes[1] 	0
scalar abilene_cost_network.node[1].content_store 	decision_no[1] 	185775
scalar abilene_cost_network.node[1].content_store 	decision_ratio[1] 	0
scalar abilene_cost_network.node[1].content_store 	correction_factor[1] 	1.9978188651193e-316
scalar abilene_cost_network.node[1].content_store 	xi[1] 	1
scalar abilene_cost_network.node[2].core_layer 	interests[2] 	150585
scalar abilene_cost_network.node[2].core_layer 	data[2] 	149589
scalar abilene_cost_network.node[2].content_store 	p_hit[2] 	0.0066075638343793
scalar abilene_cost_network.node[2].content_store 	hits[2] 	995
scalar abilene_cost_network.node[2].content_store 	misses[2] 	149590
scalar abilene_cost_network.node[2].content_store 	decision_yes[2] 	0
scalar abilene_cost_network.node[2].content_store 	decision_no[2] 	149589
scalar abilene_cost_network.node[2].content_store 	decision_ratio[2] 	0
scalar abilene_cost_network.node[2].content_store 	correction_factor[2] 	1.9973595816949e-316
scalar abilene_cost_network.node[2].content_store 	xi[2] 	1
scalar abilene_cost_network.node[3].core_layer 	interests[3] 	149590
scalar abilene_cost_network.node[3].core_layer 	data[3] 	149590
scalar abilene_cost_network.node[3].content_store 	p_hit[3] 	0
scalar abilene_cost_network.node[3].content_store 	hits[3] 	0
scalar abilene_cost_network.node[3].content_store 	misses[3] 	149590
scalar abilene_cost_network.node[3].content_store 	decision_yes[3] 	0
scalar abilene_cost_network.node[3].content_store 	decision_no[3] 	149590
scalar abilene_cost_network.node[3].content_store 	decision_ratio[3] 	0
scalar abilene_cost_network.node[3].content_store 	correction_factor[3] 	1.9975730180539e-316
scalar abilene_cost_network.node[3].content_store 	xi[3] 	1
scalar abilene_cost_network.node[4].core_layer 	interests[4] 	104473
scalar abilene_cost_network.node[4].core_layer 	data[4] 	102692
scalar abilene_cost_network.node[4].content_store 	p_hit[4] 	0.017047466809606
scalar abilene_cost_network.node[4].content_store 	hits[4] 	1781
scalar abilene_cost_network.node[4].content_store 	misses[4] 	102692
scalar abilene_cost_network.node[4].content_store 	decision_yes[4] 	0
scalar abilene_cost_network.node[4].content_store 	decision_no[4] 	102692
scalar abilene_cost_network.node[4].content_store 	decision_ratio[4] 	0
scalar abilene_cost_network.node[4].content_store 	correction_factor[4] 	1.9982291372316e-316
scalar abilene_cost_network.node[4].content_store 	xi[4] 	1
scalar abilene_cost_network.node[5].core_layer 	interests[5] 	179845
scalar abilene_cost_network.node[5].core_layer 	data[5] 	157389
scalar abilene_cost_network.node[5].content_store 	p_hit[5] 	0.10527954627596
scalar abilene_cost_network.node[5].content_store 	hits[5] 	18934
scalar abilene_cost_network.node[5].content_store 	misses[5] 	160911
scalar abilene_cost_network.node[5].content_store 	decision_yes[5] 	132
scalar abilene_cost_network.node[5].content_store 	decision_no[5] 	157257
scalar abilene_cost_network.node[5].content_store 	decision_ratio[5] 	0.00083868631225816
scalar abilene_cost_network.node[5].content_store 	correction_factor[5] 	1.9980307204682e-316
scalar abilene_cost_network.node[5].content_store 	xi[5] 	1
scalar abilene_cost_network.node[6].core_layer 	interests[6] 	52916
scalar abilene_cost_network.node[6].core_layer 	data[6] 	50553
scalar abilene_cost_network.node[6].content_store 	p_hit[6] 	0.044655680701489
scalar abilene_cost_network.node[6].content_store 	hits[6] 	2363
scalar abilene_cost_network.node[6].content_store 	misses[6] 	50553
scalar abilene_cost_network.node[6].content_store 	decision_yes[6] 	0
scalar abilene_cost_network.node[6].content_store 	decision_no[6] 	50553
scalar abilene_cost_network.node[6].content_store 	decision_ratio[6] 	0
scalar abilene_cost_network.node[6].content_store 	correction_factor[6] 	1.9973888303812e-316
scalar abilene_cost_network.node[6].content_store 	xi[6] 	1
scalar abilene_cost_network.node[7].core_layer 	interests[7] 	150305
scalar abilene_cost_network.node[7].core_layer 	data[7] 	90614
scalar abilene_cost_network.node[7].content_store 	p_hit[7] 	0.39713249725558
scalar abilene_cost_network.node[7].content_store 	hits[7] 	59691
scalar abilene_cost_network.node[7].content_store 	misses[7] 	90614
scalar abilene_cost_network.node[7].content_store 	decision_yes[7] 	0
scalar abilene_cost_network.node[7].content_store 	decision_no[7] 	90614
scalar abilene_cost_network.node[7].content_store 	decision_ratio[7] 	0
scalar abilene_cost_network.node[7].content_store 	correction_factor[7] 	1.9976489065371e-316
scalar abilene_cost_network.node[7].content_store 	xi[7] 	1
scalar abilene_cost_network.node[8].core_layer 	interests[8] 	55402
scalar abilene_cost_network.node[8].core_layer 	data[8] 	52853
scalar abilene_cost_network.node[8].content_store 	p_hit[8] 	0.045991119454171
scalar abilene_cost_network.node[8].content_store 	hits[8] 	2548
scalar abilene_cost_network.node[8].content_store 	misses[8] 	52854
scalar abilene_cost_network.node[8].content_store 	decision_yes[8] 	0
scalar abilene_cost_network.node[8].content_store 	decision_no[8] 	52853
scalar abilene_cost_network.node[8].content_store 	decision_ratio[8] 	0
scalar abilene_cost_network.node[8].content_store 	correction_factor[8] 	1.9982212321813e-316
scalar abilene_cost_network.node[8].content_store 	xi[8] 	1
scalar abilene_cost_network.node[9].core_layer 	interests[9] 	180672
scalar abilene_cost_network.node[9].core_layer 	data[9] 	163036
scalar abilene_cost_network.node[9].content_store 	p_hit[9] 	0.085475336521431
scalar abilene_cost_network.node[9].content_store 	hits[9] 	15443
scalar abilene_cost_network.node[9].content_store 	misses[9] 	165229
scalar abilene_cost_network.node[9].content_store 	decision_yes[9] 	138
scalar abilene_cost_network.node[9].content_store 	decision_no[9] 	162898
scalar abilene_cost_network.node[9].content_store 	decision_ratio[9] 	0.00084643882332736
scalar abilene_cost_network.node[9].content_store 	correction_factor[9] 	1.9997662742689e-316
scalar abilene_cost_network.node[9].content_store 	xi[9] 	1
scalar abilene_cost_network.node[10].core_layer 	interests[10] 	219471
scalar abilene_cost_network.node[10].core_layer 	data[10] 	217819
scalar abilene_cost_network.node[10].content_store 	p_hit[10] 	0.0075271903805059
scalar abilene_cost_network.node[10].content_store 	hits[10] 	1652
scalar abilene_cost_network.node[10].content_store 	misses[10] 	217819
scalar abilene_cost_network.node[10].content_store 	decision_yes[10] 	0
scalar abilene_cost_network.node[10].content_store 	decision_no[10] 	217819
scalar abilene_cost_network.node[10].content_store 	decision_ratio[10] 	0
scalar abilene_cost_network.node[10].content_store 	correction_factor[10] 	1.99878486227e-316
scalar abilene_cost_network.node[10].content_store 	xi[10] 	1
scalar abilene_cost_network.node[11].core_layer 	interests[11] 	168294
scalar abilene_cost_network.node[11].core_layer 	repo_load[11] 	168294
scalar abilene_cost_network.node[11].core_layer 	data[11] 	0
scalar abilene_cost_network.node[11].content_store 	p_hit[11] 	0
scalar abilene_cost_network.node[11].content_store 	hits[11] 	0
scalar abilene_cost_network.node[11].content_store 	misses[11] 	168294
scalar abilene_cost_network.node[11].content_store 	decision_yes[11] 	0
scalar abilene_cost_network.node[11].content_store 	decision_no[11] 	168294
scalar abilene_cost_network.node[11].content_store 	decision_ratio[11] 	0
scalar abilene_cost_network.node[12].core_layer 	interests[12] 	90614
scalar abilene_cost_network.node[12].core_layer 	repo_load[12] 	90614
scalar abilene_cost_network.node[12].core_layer 	data[12] 	0
scalar abilene_cost_network.node[12].content_store 	p_hit[12] 	0
scalar abilene_cost_network.node[12].content_store 	hits[12] 	0
scalar abilene_cost_network.node[12].content_store 	misses[12] 	90614
scalar abilene_cost_network.node[12].content_store 	decision_yes[12] 	0
scalar abilene_cost_network.node[12].content_store 	decision_no[12] 	90614
scalar abilene_cost_network.node[12].content_store 	decision_ratio[12] 	0
scalar abilene_cost_network.node[13].core_layer 	interests[13] 	82226
scalar abilene_cost_network.node[13].core_layer 	repo_load[13] 	82226
scalar abilene_cost_network.node[13].core_layer 	data[13] 	0
scalar abilene_cost_network.node[13].content_store 	p_hit[13] 	0
scalar abilene_cost_network.node[13].content_store 	hits[13] 	0
scalar abilene_cost_network.node[13].content_store 	misses[13] 	82226
scalar abilene_cost_network.node[13].content_store 	decision_yes[13] 	0
scalar abilene_cost_network.node[13].content_store 	decision_no[13] 	82226
scalar abilene_cost_network.node[13].content_store 	decision_ratio[13] 	0
scalar abilene_cost_network.client[0] 	hdistance[0] 	2.8853987578892
scalar abilene_cost_network.client[0] 	downloads[0] 	178567
scalar abilene_cost_network.client[0] 	avg_time[0] 	0.011933836029
scalar abilene_cost_network.client[0] 	interests_sent[0] 	179248
scalar abilene_cost_network.client[5] 	hdistance[5] 	4.5248436108731
scalar abilene_cost_network.client[5] 	downloads[5] 	176323
scalar abilene_cost_network.client[5] 	avg_time[5] 	0.017242145632
scalar abilene_cost_network.client[5] 	interests_sent[5] 	179845
scalar abilene_cost_network.client[9] 	hdistance[9] 	2.7635296029224
scalar abilene_cost_network.client[9] 	downloads[9] 	178479
scalar abilene_cost_network.client[9] 	avg_time[9] 	0.011564150989
scalar abilene_cost_network.client[9] 	interests_sent[9] 	180672
