version 2
run General-27-20140708-17:24:31-17233
attr D costprobtailcons
attr F spr
attr R lru
attr a 1
attr configname General
attr csize 1e3
attr ctlg 1e5
attr datetime 20140708-17:24:31
attr experiment General
attr inifile omnetpp.ini
attr iterationvars "$net=abilene_cost, $rep=14, $priceratiovalue=10, $weights=0.333_0.333_0.334, $lambda=100, $a=1, $ctlg=1e5, $F=spr, $ttl=1000, $D=costprobtailcons, $xi=1, $R=lru, $csize=1e3, $pricebits=0, $window=60, $variance=0.05, $mytime=1800"
attr iterationvars2 "$net=abilene_cost, $rep=14, $priceratiovalue=10, $weights=0.333_0.333_0.334, $lambda=100, $a=1, $ctlg=1e5, $F=spr, $ttl=1000, $D=costprobtailcons, $xi=1, $R=lru, $csize=1e3, $pricebits=0, $window=60, $variance=0.05, $mytime=1800, $repetition=0"
attr lambda 100
attr measurement "$net=abilene_cost, $rep=14, $priceratiovalue=10, $weights=0.333_0.333_0.334, $lambda=100, $a=1, $ctlg=1e5, $F=spr, $ttl=1000, $D=costprobtailcons, $xi=1, $R=lru, $csize=1e3, $pricebits=0, $window=60, $variance=0.05, $mytime=1800"
attr mytime 1800
attr net abilene_cost
attr network "networks.${net=abilene_cost, geant_cost}_network"
attr pricebits 0
attr priceratiovalue 10
attr processid 17233
attr rep 14
attr repetition 0
attr replication #0
attr resultdir results
attr runnumber 27
attr seedset 14
attr ttl 1000
attr variance 0.05
attr weights 0.333_0.333_0.334
attr window 60
attr xi 1

scalar . 	a 	1
scalar . 	csize 	1e3
scalar . 	ctlg 	1e5
scalar . 	lambda 	100
scalar . 	mytime 	1800
scalar . 	pricebits 	0
scalar . 	priceratiovalue 	10
scalar . 	rep 	14
scalar . 	ttl 	1000
scalar . 	variance 	0.05
scalar . 	window 	60
scalar . 	xi 	1
scalar abilene_cost_network.content_distribution 	repo-0 	11
scalar abilene_cost_network.content_distribution 	repo-1 	12
scalar abilene_cost_network.content_distribution 	repo-2 	13
scalar abilene_cost_network.content_distribution 	client-0 	5
scalar abilene_cost_network.content_distribution 	client-1 	0
scalar abilene_cost_network.content_distribution 	client-2 	9
scalar abilene_cost_network.content_distribution 	repo-0_card 	32966
scalar abilene_cost_network.content_distribution 	repo-1_card 	33555
scalar abilene_cost_network.content_distribution 	repo-2_card 	33479
scalar abilene_cost_network.statistics 	repo_popularity[0] 	0.41551934442987
scalar abilene_cost_network.statistics 	repo_popularity[1] 	0.31847271720617
scalar abilene_cost_network.statistics 	repo_popularity[2] 	0.26600793836396
scalar abilene_cost_network.statistics 	stabilization_time 	65.6
scalar abilene_cost_network.node[1].face$o[4].channel 	price[1] 	0
scalar abilene_cost_network.node[1].face$o[4].channel 	represented_price[1] 	0
scalar abilene_cost_network.node[7].face$o[4].channel 	price[7] 	0
scalar abilene_cost_network.node[7].face$o[4].channel 	represented_price[7] 	0
scalar abilene_cost_network.node[10].face$o[4].channel 	price[10] 	0
scalar abilene_cost_network.node[10].face$o[4].channel 	represented_price[10] 	0
scalar abilene_cost_network.node[11].face$o[1].channel 	price[11] 	0
scalar abilene_cost_network.node[11].face$o[1].channel 	represented_price[11] 	0
scalar abilene_cost_network.node[12].face$o[1].channel 	price[12] 	1
scalar abilene_cost_network.node[12].face$o[1].channel 	represented_price[12] 	1
scalar abilene_cost_network.node[13].face$o[1].channel 	price[13] 	10
scalar abilene_cost_network.node[13].face$o[1].channel 	represented_price[13] 	10
scalar abilene_cost_network.statistics 	p_hit 	0.067155793605072
scalar abilene_cost_network.statistics 	interests 	147668.35714286
scalar abilene_cost_network.statistics 	data 	109116.35714286
scalar abilene_cost_network.statistics 	hdistance 	3.6136833208046
scalar abilene_cost_network.statistics 	avg_time 	0.013672349812
scalar abilene_cost_network.statistics 	downloads 	532770
scalar abilene_cost_network.statistics 	total_cost 	958796
scalar abilene_cost_network.statistics 	total_replicas 	100000
scalar abilene_cost_network.statistics 	inner_hit 	0.26059275109334
scalar abilene_cost_network.statistics 	interests_sent 	539730
scalar abilene_cost_network.node[0].core_layer 	interests[0] 	180661
scalar abilene_cost_network.node[0].core_layer 	data[0] 	154621
scalar abilene_cost_network.node[0].core_layer 	repo_int[0] 	393934
scalar abilene_cost_network.node[0].content_store 	p_hit[0] 	0.13562971532317
scalar abilene_cost_network.node[0].content_store 	hits[0] 	24503
scalar abilene_cost_network.node[0].content_store 	misses[0] 	156158
scalar abilene_cost_network.node[0].content_store 	decision_yes[0] 	95
scalar abilene_cost_network.node[0].content_store 	decision_no[0] 	154526
scalar abilene_cost_network.node[0].content_store 	decision_ratio[0] 	0.00061440554646523
scalar abilene_cost_network.node[0].content_store 	correction_factor[0] 	1.856806996261e-316
scalar abilene_cost_network.node[0].content_store 	xi[0] 	1
scalar abilene_cost_network.node[1].core_layer 	interests[1] 	221657
scalar abilene_cost_network.node[1].core_layer 	data[1] 	203070
scalar abilene_cost_network.node[1].content_store 	p_hit[1] 	0.083854784644744
scalar abilene_cost_network.node[1].content_store 	hits[1] 	18587
scalar abilene_cost_network.node[1].content_store 	misses[1] 	203070
scalar abilene_cost_network.node[1].content_store 	decision_yes[1] 	0
scalar abilene_cost_network.node[1].content_store 	decision_no[1] 	203070
scalar abilene_cost_network.node[1].content_store 	decision_ratio[1] 	0
scalar abilene_cost_network.node[1].content_store 	correction_factor[1] 	1.8569698402978e-316
scalar abilene_cost_network.node[1].content_store 	xi[1] 	1
scalar abilene_cost_network.node[2].core_layer 	interests[2] 	151123
scalar abilene_cost_network.node[2].core_layer 	data[2] 	150953
scalar abilene_cost_network.node[2].content_store 	p_hit[2] 	0.0011182943694871
scalar abilene_cost_network.node[2].content_store 	hits[2] 	169
scalar abilene_cost_network.node[2].content_store 	misses[2] 	150954
scalar abilene_cost_network.node[2].content_store 	decision_yes[2] 	0
scalar abilene_cost_network.node[2].content_store 	decision_no[2] 	150953
scalar abilene_cost_network.node[2].content_store 	decision_ratio[2] 	0
scalar abilene_cost_network.node[2].content_store 	correction_factor[2] 	1.8565105568735e-316
scalar abilene_cost_network.node[2].content_store 	xi[2] 	1
scalar abilene_cost_network.node[3].core_layer 	interests[3] 	150958
scalar abilene_cost_network.node[3].core_layer 	data[3] 	150954
scalar abilene_cost_network.node[3].content_store 	p_hit[3] 	2.6497436373031e-05
scalar abilene_cost_network.node[3].content_store 	hits[3] 	4
scalar abilene_cost_network.node[3].content_store 	misses[3] 	150954
scalar abilene_cost_network.node[3].content_store 	decision_yes[3] 	0
scalar abilene_cost_network.node[3].content_store 	decision_no[3] 	150954
scalar abilene_cost_network.node[3].content_store 	decision_ratio[3] 	0
scalar abilene_cost_network.node[3].content_store 	correction_factor[3] 	1.8567239932325e-316
scalar abilene_cost_network.node[3].content_store 	xi[3] 	1
scalar abilene_cost_network.node[4].core_layer 	interests[4] 	108636
scalar abilene_cost_network.node[4].core_layer 	data[4] 	106101
scalar abilene_cost_network.node[4].content_store 	p_hit[4] 	0.023334806141611
scalar abilene_cost_network.node[4].content_store 	hits[4] 	2535
scalar abilene_cost_network.node[4].content_store 	misses[4] 	106101
scalar abilene_cost_network.node[4].content_store 	decision_yes[4] 	0
scalar abilene_cost_network.node[4].content_store 	decision_no[4] 	106101
scalar abilene_cost_network.node[4].content_store 	decision_ratio[4] 	0
scalar abilene_cost_network.node[4].content_store 	correction_factor[4] 	1.8573801124101e-316
scalar abilene_cost_network.node[4].content_store 	xi[4] 	1
scalar abilene_cost_network.node[5].core_layer 	interests[5] 	179501
scalar abilene_cost_network.node[5].core_layer 	data[5] 	158050
scalar abilene_cost_network.node[5].content_store 	p_hit[5] 	0.097420070083175
scalar abilene_cost_network.node[5].content_store 	hits[5] 	17487
scalar abilene_cost_network.node[5].content_store 	misses[5] 	162014
scalar abilene_cost_network.node[5].content_store 	decision_yes[5] 	123
scalar abilene_cost_network.node[5].content_store 	decision_no[5] 	157927
scalar abilene_cost_network.node[5].content_store 	decision_ratio[5] 	0.00077823473584309
scalar abilene_cost_network.node[5].content_store 	correction_factor[5] 	1.8571816956468e-316
scalar abilene_cost_network.node[5].content_store 	xi[5] 	1
scalar abilene_cost_network.node[6].core_layer 	interests[6] 	49412
scalar abilene_cost_network.node[6].core_layer 	data[6] 	46927
scalar abilene_cost_network.node[6].content_store 	p_hit[6] 	0.050331903181413
scalar abilene_cost_network.node[6].content_store 	hits[6] 	2487
scalar abilene_cost_network.node[6].content_store 	misses[6] 	46925
scalar abilene_cost_network.node[6].content_store 	decision_yes[6] 	0
scalar abilene_cost_network.node[6].content_store 	decision_no[6] 	46927
scalar abilene_cost_network.node[6].content_store 	decision_ratio[6] 	0
scalar abilene_cost_network.node[6].content_store 	correction_factor[6] 	1.8565398055597e-316
scalar abilene_cost_network.node[6].content_store 	xi[6] 	1
scalar abilene_cost_network.node[7].core_layer 	interests[7] 	141828
scalar abilene_cost_network.node[7].core_layer 	data[7] 	87816
scalar abilene_cost_network.node[7].content_store 	p_hit[7] 	0.38082748117438
scalar abilene_cost_network.node[7].content_store 	hits[7] 	54012
scalar abilene_cost_network.node[7].content_store 	misses[7] 	87816
scalar abilene_cost_network.node[7].content_store 	decision_yes[7] 	0
scalar abilene_cost_network.node[7].content_store 	decision_no[7] 	87816
scalar abilene_cost_network.node[7].content_store 	decision_ratio[7] 	0
scalar abilene_cost_network.node[7].content_store 	correction_factor[7] 	1.8567998817157e-316
scalar abilene_cost_network.node[7].content_store 	xi[7] 	1
scalar abilene_cost_network.node[8].core_layer 	interests[8] 	54175
scalar abilene_cost_network.node[8].core_layer 	data[8] 	50045
scalar abilene_cost_network.node[8].content_store 	p_hit[8] 	0.076234425473004
scalar abilene_cost_network.node[8].content_store 	hits[8] 	4130
scalar abilene_cost_network.node[8].content_store 	misses[8] 	50045
scalar abilene_cost_network.node[8].content_store 	decision_yes[8] 	0
scalar abilene_cost_network.node[8].content_store 	decision_no[8] 	50045
scalar abilene_cost_network.node[8].content_store 	decision_ratio[8] 	0
scalar abilene_cost_network.node[8].content_store 	correction_factor[8] 	1.8573722073598e-316
scalar abilene_cost_network.node[8].content_store 	xi[8] 	1
scalar abilene_cost_network.node[9].core_layer 	interests[9] 	179568
scalar abilene_cost_network.node[9].core_layer 	data[9] 	165111
scalar abilene_cost_network.node[9].content_store 	p_hit[9] 	0.072384834714426
scalar abilene_cost_network.node[9].content_store 	hits[9] 	12998
scalar abilene_cost_network.node[9].content_store 	misses[9] 	166570
scalar abilene_cost_network.node[9].content_store 	decision_yes[9] 	106
scalar abilene_cost_network.node[9].content_store 	decision_no[9] 	165005
scalar abilene_cost_network.node[9].content_store 	decision_ratio[9] 	0.00064199235665704
scalar abilene_cost_network.node[9].content_store 	correction_factor[9] 	1.8589172494475e-316
scalar abilene_cost_network.node[9].content_store 	xi[9] 	1
scalar abilene_cost_network.node[10].core_layer 	interests[10] 	255904
scalar abilene_cost_network.node[10].core_layer 	data[10] 	253981
scalar abilene_cost_network.node[10].content_store 	p_hit[10] 	0.007514536701263
scalar abilene_cost_network.node[10].content_store 	hits[10] 	1923
scalar abilene_cost_network.node[10].content_store 	misses[10] 	253981
scalar abilene_cost_network.node[10].content_store 	decision_yes[10] 	0
scalar abilene_cost_network.node[10].content_store 	decision_no[10] 	253981
scalar abilene_cost_network.node[10].content_store 	decision_ratio[10] 	0
scalar abilene_cost_network.node[10].content_store 	correction_factor[10] 	1.8579358374486e-316
scalar abilene_cost_network.node[10].content_store 	xi[10] 	1
scalar abilene_cost_network.node[11].core_layer 	interests[11] 	219020
scalar abilene_cost_network.node[11].core_layer 	repo_load[11] 	219020
scalar abilene_cost_network.node[11].core_layer 	data[11] 	0
scalar abilene_cost_network.node[11].content_store 	p_hit[11] 	0
scalar abilene_cost_network.node[11].content_store 	hits[11] 	0
scalar abilene_cost_network.node[11].content_store 	misses[11] 	219020
scalar abilene_cost_network.node[11].content_store 	decision_yes[11] 	0
scalar abilene_cost_network.node[11].content_store 	decision_no[11] 	219020
scalar abilene_cost_network.node[11].content_store 	decision_ratio[11] 	0
scalar abilene_cost_network.node[12].core_layer 	interests[12] 	87816
scalar abilene_cost_network.node[12].core_layer 	repo_load[12] 	87816
scalar abilene_cost_network.node[12].core_layer 	data[12] 	0
scalar abilene_cost_network.node[12].content_store 	p_hit[12] 	0
scalar abilene_cost_network.node[12].content_store 	hits[12] 	0
scalar abilene_cost_network.node[12].content_store 	misses[12] 	87816
scalar abilene_cost_network.node[12].content_store 	decision_yes[12] 	0
scalar abilene_cost_network.node[12].content_store 	decision_no[12] 	87816
scalar abilene_cost_network.node[12].content_store 	decision_ratio[12] 	0
scalar abilene_cost_network.node[13].core_layer 	interests[13] 	87098
scalar abilene_cost_network.node[13].core_layer 	repo_load[13] 	87098
scalar abilene_cost_network.node[13].core_layer 	data[13] 	0
scalar abilene_cost_network.node[13].content_store 	p_hit[13] 	0
scalar abilene_cost_network.node[13].content_store 	hits[13] 	0
scalar abilene_cost_network.node[13].content_store 	misses[13] 	87098
scalar abilene_cost_network.node[13].content_store 	decision_yes[13] 	0
scalar abilene_cost_network.node[13].content_store 	decision_no[13] 	87098
scalar abilene_cost_network.node[13].content_store 	decision_ratio[13] 	0
scalar abilene_cost_network.client[0] 	hdistance[0] 	3.1078973225252
scalar abilene_cost_network.client[0] 	downloads[0] 	179124
scalar abilene_cost_network.client[0] 	avg_time[0] 	0.011897163843
scalar abilene_cost_network.client[0] 	interests_sent[0] 	180661
scalar abilene_cost_network.client[5] 	hdistance[5] 	4.8507323242394
scalar abilene_cost_network.client[5] 	downloads[5] 	175537
scalar abilene_cost_network.client[5] 	avg_time[5] 	0.018482426349
scalar abilene_cost_network.client[5] 	interests_sent[5] 	179501
scalar abilene_cost_network.client[9] 	hdistance[9] 	2.8824203156494
scalar abilene_cost_network.client[9] 	downloads[9] 	178109
scalar abilene_cost_network.client[9] 	avg_time[9] 	0.010637459245
scalar abilene_cost_network.client[9] 	interests_sent[9] 	179568
