version 2
run General-29-20140708-17:24:59-17235
attr D costprobtailcons
attr F spr
attr R lru
attr a 1
attr configname General
attr csize 1e3
attr ctlg 1e5
attr datetime 20140708-17:24:59
attr experiment General
attr inifile omnetpp.ini
attr iterationvars "$net=abilene_cost, $rep=15, $priceratiovalue=10, $weights=0.333_0.333_0.334, $lambda=100, $a=1, $ctlg=1e5, $F=spr, $ttl=1000, $D=costprobtailcons, $xi=1, $R=lru, $csize=1e3, $pricebits=0, $window=60, $variance=0.05, $mytime=1800"
attr iterationvars2 "$net=abilene_cost, $rep=15, $priceratiovalue=10, $weights=0.333_0.333_0.334, $lambda=100, $a=1, $ctlg=1e5, $F=spr, $ttl=1000, $D=costprobtailcons, $xi=1, $R=lru, $csize=1e3, $pricebits=0, $window=60, $variance=0.05, $mytime=1800, $repetition=0"
attr lambda 100
attr measurement "$net=abilene_cost, $rep=15, $priceratiovalue=10, $weights=0.333_0.333_0.334, $lambda=100, $a=1, $ctlg=1e5, $F=spr, $ttl=1000, $D=costprobtailcons, $xi=1, $R=lru, $csize=1e3, $pricebits=0, $window=60, $variance=0.05, $mytime=1800"
attr mytime 1800
attr net abilene_cost
attr network "networks.${net=abilene_cost, geant_cost}_network"
attr pricebits 0
attr priceratiovalue 10
attr processid 17235
attr rep 15
attr repetition 0
attr replication #0
attr resultdir results
attr runnumber 29
attr seedset 15
attr ttl 1000
attr variance 0.05
attr weights 0.333_0.333_0.334
attr window 60
attr xi 1

scalar . 	a 	1
scalar . 	csize 	1e3
scalar . 	ctlg 	1e5
scalar . 	lambda 	100
scalar . 	mytime 	1800
scalar . 	pricebits 	0
scalar . 	priceratiovalue 	10
scalar . 	rep 	15
scalar . 	ttl 	1000
scalar . 	variance 	0.05
scalar . 	window 	60
scalar . 	xi 	1
scalar abilene_cost_network.content_distribution 	repo-0 	11
scalar abilene_cost_network.content_distribution 	repo-1 	12
scalar abilene_cost_network.content_distribution 	repo-2 	13
scalar abilene_cost_network.content_distribution 	client-0 	5
scalar abilene_cost_network.content_distribution 	client-1 	0
scalar abilene_cost_network.content_distribution 	client-2 	9
scalar abilene_cost_network.content_distribution 	repo-0_card 	33353
scalar abilene_cost_network.content_distribution 	repo-1_card 	33285
scalar abilene_cost_network.content_distribution 	repo-2_card 	33362
scalar abilene_cost_network.statistics 	repo_popularity[0] 	0.34920511897542
scalar abilene_cost_network.statistics 	repo_popularity[1] 	0.27009721586053
scalar abilene_cost_network.statistics 	repo_popularity[2] 	0.38069766516405
scalar abilene_cost_network.statistics 	stabilization_time 	65.8
scalar abilene_cost_network.node[1].face$o[4].channel 	price[1] 	0
scalar abilene_cost_network.node[1].face$o[4].channel 	represented_price[1] 	0
scalar abilene_cost_network.node[7].face$o[4].channel 	price[7] 	0
scalar abilene_cost_network.node[7].face$o[4].channel 	represented_price[7] 	0
scalar abilene_cost_network.node[10].face$o[4].channel 	price[10] 	0
scalar abilene_cost_network.node[10].face$o[4].channel 	represented_price[10] 	0
scalar abilene_cost_network.node[11].face$o[1].channel 	price[11] 	0
scalar abilene_cost_network.node[11].face$o[1].channel 	represented_price[11] 	0
scalar abilene_cost_network.node[12].face$o[1].channel 	price[12] 	1
scalar abilene_cost_network.node[12].face$o[1].channel 	represented_price[12] 	1
scalar abilene_cost_network.node[13].face$o[1].channel 	price[13] 	10
scalar abilene_cost_network.node[13].face$o[1].channel 	represented_price[13] 	10
scalar abilene_cost_network.statistics 	p_hit 	0.088564116872969
scalar abilene_cost_network.statistics 	interests 	146173.35714286
scalar abilene_cost_network.statistics 	data 	107561
scalar abilene_cost_network.statistics 	hdistance 	3.4850733822181
scalar abilene_cost_network.statistics 	avg_time 	0.013713939911
scalar abilene_cost_network.statistics 	downloads 	534328
scalar abilene_cost_network.statistics 	total_cost 	887368
scalar abilene_cost_network.statistics 	total_replicas 	100000
scalar abilene_cost_network.statistics 	inner_hit 	0.33919614918178
scalar abilene_cost_network.statistics 	interests_sent 	540588
scalar abilene_cost_network.node[0].core_layer 	interests[0] 	179896
scalar abilene_cost_network.node[0].core_layer 	data[0] 	165977
scalar abilene_cost_network.node[0].core_layer 	repo_int[0] 	353086
scalar abilene_cost_network.node[0].content_store 	p_hit[0] 	0.065815804687153
scalar abilene_cost_network.node[0].content_store 	hits[0] 	11840
scalar abilene_cost_network.node[0].content_store 	misses[0] 	168056
scalar abilene_cost_network.node[0].content_store 	decision_yes[0] 	146
scalar abilene_cost_network.node[0].content_store 	decision_no[0] 	165831
scalar abilene_cost_network.node[0].content_store 	decision_ratio[0] 	0.00087963995011357
scalar abilene_cost_network.node[0].content_store 	correction_factor[0] 	1.8600449048776e-316
scalar abilene_cost_network.node[0].content_store 	xi[0] 	1
scalar abilene_cost_network.node[1].core_layer 	interests[1] 	261071
scalar abilene_cost_network.node[1].core_layer 	data[1] 	189013
scalar abilene_cost_network.node[1].content_store 	p_hit[1] 	0.27601686897434
scalar abilene_cost_network.node[1].content_store 	hits[1] 	72060
scalar abilene_cost_network.node[1].content_store 	misses[1] 	189011
scalar abilene_cost_network.node[1].content_store 	decision_yes[1] 	6
scalar abilene_cost_network.node[1].content_store 	decision_no[1] 	189007
scalar abilene_cost_network.node[1].content_store 	decision_ratio[1] 	3.174384830673e-05
scalar abilene_cost_network.node[1].content_store 	correction_factor[1] 	1.8602077489144e-316
scalar abilene_cost_network.node[1].content_store 	xi[1] 	1
scalar abilene_cost_network.node[2].core_layer 	interests[2] 	166897
scalar abilene_cost_network.node[2].core_layer 	data[2] 	166419
scalar abilene_cost_network.node[2].content_store 	p_hit[2] 	0.0028880087718773
scalar abilene_cost_network.node[2].content_store 	hits[2] 	482
scalar abilene_cost_network.node[2].content_store 	misses[2] 	166415
scalar abilene_cost_network.node[2].content_store 	decision_yes[2] 	0
scalar abilene_cost_network.node[2].content_store 	decision_no[2] 	166419
scalar abilene_cost_network.node[2].content_store 	decision_ratio[2] 	0
scalar abilene_cost_network.node[2].content_store 	correction_factor[2] 	1.8597484654901e-316
scalar abilene_cost_network.node[2].content_store 	xi[2] 	1
scalar abilene_cost_network.node[3].core_layer 	interests[3] 	166415
scalar abilene_cost_network.node[3].core_layer 	data[3] 	166419
scalar abilene_cost_network.node[3].content_store 	p_hit[3] 	0
scalar abilene_cost_network.node[3].content_store 	hits[3] 	0
scalar abilene_cost_network.node[3].content_store 	misses[3] 	166415
scalar abilene_cost_network.node[3].content_store 	decision_yes[3] 	0
scalar abilene_cost_network.node[3].content_store 	decision_no[3] 	166419
scalar abilene_cost_network.node[3].content_store 	decision_ratio[3] 	0
scalar abilene_cost_network.node[3].content_store 	correction_factor[3] 	1.8599619018491e-316
scalar abilene_cost_network.node[3].content_store 	xi[3] 	1
scalar abilene_cost_network.node[4].core_layer 	interests[4] 	121057
scalar abilene_cost_network.node[4].core_layer 	data[4] 	119715
scalar abilene_cost_network.node[4].content_store 	p_hit[4] 	0.011118729193686
scalar abilene_cost_network.node[4].content_store 	hits[4] 	1346
scalar abilene_cost_network.node[4].content_store 	misses[4] 	119711
scalar abilene_cost_network.node[4].content_store 	decision_yes[4] 	0
scalar abilene_cost_network.node[4].content_store 	decision_no[4] 	119715
scalar abilene_cost_network.node[4].content_store 	decision_ratio[4] 	0
scalar abilene_cost_network.node[4].content_store 	correction_factor[4] 	1.8606180210267e-316
scalar abilene_cost_network.node[4].content_store 	xi[4] 	1
scalar abilene_cost_network.node[5].core_layer 	interests[5] 	180686
scalar abilene_cost_network.node[5].core_layer 	data[5] 	164058
scalar abilene_cost_network.node[5].content_store 	p_hit[5] 	0.070437111895775
scalar abilene_cost_network.node[5].content_store 	hits[5] 	12727
scalar abilene_cost_network.node[5].content_store 	misses[5] 	167959
scalar abilene_cost_network.node[5].content_store 	decision_yes[5] 	121
scalar abilene_cost_network.node[5].content_store 	decision_no[5] 	163937
scalar abilene_cost_network.node[5].content_store 	decision_ratio[5] 	0.00073754403930317
scalar abilene_cost_network.node[5].content_store 	correction_factor[5] 	1.8604196042634e-316
scalar abilene_cost_network.node[5].content_store 	xi[5] 	1
scalar abilene_cost_network.node[6].core_layer 	interests[6] 	42997
scalar abilene_cost_network.node[6].core_layer 	data[6] 	39815
scalar abilene_cost_network.node[6].content_store 	p_hit[6] 	0.074005163150917
scalar abilene_cost_network.node[6].content_store 	hits[6] 	3182
scalar abilene_cost_network.node[6].content_store 	misses[6] 	39815
scalar abilene_cost_network.node[6].content_store 	decision_yes[6] 	0
scalar abilene_cost_network.node[6].content_store 	decision_no[6] 	39815
scalar abilene_cost_network.node[6].content_store 	decision_ratio[6] 	0
scalar abilene_cost_network.node[6].content_store 	correction_factor[6] 	1.8597777141763e-316
scalar abilene_cost_network.node[6].content_store 	xi[6] 	1
scalar abilene_cost_network.node[7].core_layer 	interests[7] 	126256
scalar abilene_cost_network.node[7].core_layer 	data[7] 	86278
scalar abilene_cost_network.node[7].content_store 	p_hit[7] 	0.31664237739197
scalar abilene_cost_network.node[7].content_store 	hits[7] 	39978
scalar abilene_cost_network.node[7].content_store 	misses[7] 	86278
scalar abilene_cost_network.node[7].content_store 	decision_yes[7] 	104
scalar abilene_cost_network.node[7].content_store 	decision_no[7] 	86174
scalar abilene_cost_network.node[7].content_store 	decision_ratio[7] 	0.0012054057813116
scalar abilene_cost_network.node[7].content_store 	correction_factor[7] 	1.8600377903323e-316
scalar abilene_cost_network.node[7].content_store 	xi[7] 	1
scalar abilene_cost_network.node[8].core_layer 	interests[8] 	42410
scalar abilene_cost_network.node[8].core_layer 	data[8] 	39737
scalar abilene_cost_network.node[8].content_store 	p_hit[8] 	0.063027587833058
scalar abilene_cost_network.node[8].content_store 	hits[8] 	2673
scalar abilene_cost_network.node[8].content_store 	misses[8] 	39737
scalar abilene_cost_network.node[8].content_store 	decision_yes[8] 	0
scalar abilene_cost_network.node[8].content_store 	decision_no[8] 	39737
scalar abilene_cost_network.node[8].content_store 	decision_ratio[8] 	0
scalar abilene_cost_network.node[8].content_store 	correction_factor[8] 	1.8606101159764e-316
scalar abilene_cost_network.node[8].content_store 	xi[8] 	1
scalar abilene_cost_network.node[9].core_layer 	interests[9] 	180006
scalar abilene_cost_network.node[9].core_layer 	data[9] 	143832
scalar abilene_cost_network.node[9].content_store 	p_hit[9] 	0.19940446429563
scalar abilene_cost_network.node[9].content_store 	hits[9] 	35894
scalar abilene_cost_network.node[9].content_store 	misses[9] 	144112
scalar abilene_cost_network.node[9].content_store 	decision_yes[9] 	150
scalar abilene_cost_network.node[9].content_store 	decision_no[9] 	143682
scalar abilene_cost_network.node[9].content_store 	decision_ratio[9] 	0.0010428833639246
scalar abilene_cost_network.node[9].content_store 	correction_factor[9] 	1.8621551580641e-316
scalar abilene_cost_network.node[9].content_store 	xi[9] 	1
scalar abilene_cost_network.node[10].core_layer 	interests[10] 	225650
scalar abilene_cost_network.node[10].core_layer 	data[10] 	224591
scalar abilene_cost_network.node[10].content_store 	p_hit[10] 	0.0046886771548859
scalar abilene_cost_network.node[10].content_store 	hits[10] 	1058
scalar abilene_cost_network.node[10].content_store 	misses[10] 	224592
scalar abilene_cost_network.node[10].content_store 	decision_yes[10] 	0
scalar abilene_cost_network.node[10].content_store 	decision_no[10] 	224591
scalar abilene_cost_network.node[10].content_store 	decision_ratio[10] 	0
scalar abilene_cost_network.node[10].content_store 	correction_factor[10] 	1.8611737460652e-316
scalar abilene_cost_network.node[10].content_store 	xi[10] 	1
scalar abilene_cost_network.node[11].core_layer 	interests[11] 	186699
scalar abilene_cost_network.node[11].core_layer 	repo_load[11] 	186699
scalar abilene_cost_network.node[11].core_layer 	data[11] 	0
scalar abilene_cost_network.node[11].content_store 	p_hit[11] 	0
scalar abilene_cost_network.node[11].content_store 	hits[11] 	0
scalar abilene_cost_network.node[11].content_store 	misses[11] 	186699
scalar abilene_cost_network.node[11].content_store 	decision_yes[11] 	0
scalar abilene_cost_network.node[11].content_store 	decision_no[11] 	186699
scalar abilene_cost_network.node[11].content_store 	decision_ratio[11] 	0
scalar abilene_cost_network.node[12].core_layer 	interests[12] 	86278
scalar abilene_cost_network.node[12].core_layer 	repo_load[12] 	86278
scalar abilene_cost_network.node[12].core_layer 	data[12] 	0
scalar abilene_cost_network.node[12].content_store 	p_hit[12] 	0
scalar abilene_cost_network.node[12].content_store 	hits[12] 	0
scalar abilene_cost_network.node[12].content_store 	misses[12] 	86278
scalar abilene_cost_network.node[12].content_store 	decision_yes[12] 	0
scalar abilene_cost_network.node[12].content_store 	decision_no[12] 	86278
scalar abilene_cost_network.node[12].content_store 	decision_ratio[12] 	0
scalar abilene_cost_network.node[13].core_layer 	interests[13] 	80109
scalar abilene_cost_network.node[13].core_layer 	repo_load[13] 	80109
scalar abilene_cost_network.node[13].core_layer 	data[13] 	0
scalar abilene_cost_network.node[13].content_store 	p_hit[13] 	0
scalar abilene_cost_network.node[13].content_store 	hits[13] 	0
scalar abilene_cost_network.node[13].content_store 	misses[13] 	80109
scalar abilene_cost_network.node[13].content_store 	decision_yes[13] 	0
scalar abilene_cost_network.node[13].content_store 	decision_no[13] 	80109
scalar abilene_cost_network.node[13].content_store 	decision_ratio[13] 	0
scalar abilene_cost_network.client[0] 	hdistance[0] 	3.062401232728
scalar abilene_cost_network.client[0] 	downloads[0] 	177817
scalar abilene_cost_network.client[0] 	avg_time[0] 	0.013043407601
scalar abilene_cost_network.client[0] 	interests_sent[0] 	179896
scalar abilene_cost_network.client[5] 	hdistance[5] 	4.857453969511
scalar abilene_cost_network.client[5] 	downloads[5] 	176785
scalar abilene_cost_network.client[5] 	avg_time[5] 	0.018951487472
scalar abilene_cost_network.client[5] 	interests_sent[5] 	180686
scalar abilene_cost_network.client[9] 	hdistance[9] 	2.5353649444154
scalar abilene_cost_network.client[9] 	downloads[9] 	179726
scalar abilene_cost_network.client[9] 	avg_time[9] 	0.00914692466
scalar abilene_cost_network.client[9] 	interests_sent[9] 	180006
