version 2
run General-39-20140708-17:26:02-17245
attr D costprobtailcons
attr F spr
attr R lru
attr a 1
attr configname General
attr csize 1e3
attr ctlg 1e5
attr datetime 20140708-17:26:02
attr experiment General
attr inifile omnetpp.ini
attr iterationvars "$net=abilene_cost, $rep=20, $priceratiovalue=10, $weights=0.333_0.333_0.334, $lambda=100, $a=1, $ctlg=1e5, $F=spr, $ttl=1000, $D=costprobtailcons, $xi=1, $R=lru, $csize=1e3, $pricebits=0, $window=60, $variance=0.05, $mytime=1800"
attr iterationvars2 "$net=abilene_cost, $rep=20, $priceratiovalue=10, $weights=0.333_0.333_0.334, $lambda=100, $a=1, $ctlg=1e5, $F=spr, $ttl=1000, $D=costprobtailcons, $xi=1, $R=lru, $csize=1e3, $pricebits=0, $window=60, $variance=0.05, $mytime=1800, $repetition=0"
attr lambda 100
attr measurement "$net=abilene_cost, $rep=20, $priceratiovalue=10, $weights=0.333_0.333_0.334, $lambda=100, $a=1, $ctlg=1e5, $F=spr, $ttl=1000, $D=costprobtailcons, $xi=1, $R=lru, $csize=1e3, $pricebits=0, $window=60, $variance=0.05, $mytime=1800"
attr mytime 1800
attr net abilene_cost
attr network "networks.${net=abilene_cost, geant_cost}_network"
attr pricebits 0
attr priceratiovalue 10
attr processid 17245
attr rep 20
attr repetition 0
attr replication #0
attr resultdir results
attr runnumber 39
attr seedset 20
attr ttl 1000
attr variance 0.05
attr weights 0.333_0.333_0.334
attr window 60
attr xi 1

scalar . 	a 	1
scalar . 	csize 	1e3
scalar . 	ctlg 	1e5
scalar . 	lambda 	100
scalar . 	mytime 	1800
scalar . 	pricebits 	0
scalar . 	priceratiovalue 	10
scalar . 	rep 	20
scalar . 	ttl 	1000
scalar . 	variance 	0.05
scalar . 	window 	60
scalar . 	xi 	1
scalar abilene_cost_network.content_distribution 	repo-0 	11
scalar abilene_cost_network.content_distribution 	repo-1 	12
scalar abilene_cost_network.content_distribution 	repo-2 	13
scalar abilene_cost_network.content_distribution 	client-0 	5
scalar abilene_cost_network.content_distribution 	client-1 	0
scalar abilene_cost_network.content_distribution 	client-2 	9
scalar abilene_cost_network.content_distribution 	repo-0_card 	33321
scalar abilene_cost_network.content_distribution 	repo-1_card 	33296
scalar abilene_cost_network.content_distribution 	repo-2_card 	33383
scalar abilene_cost_network.statistics 	repo_popularity[0] 	0.30078651597297
scalar abilene_cost_network.statistics 	repo_popularity[1] 	0.29276091736323
scalar abilene_cost_network.statistics 	repo_popularity[2] 	0.4064525666638
scalar abilene_cost_network.statistics 	stabilization_time 	64.3
scalar abilene_cost_network.node[1].face$o[4].channel 	price[1] 	0
scalar abilene_cost_network.node[1].face$o[4].channel 	represented_price[1] 	0
scalar abilene_cost_network.node[7].face$o[4].channel 	price[7] 	0
scalar abilene_cost_network.node[7].face$o[4].channel 	represented_price[7] 	0
scalar abilene_cost_network.node[10].face$o[4].channel 	price[10] 	0
scalar abilene_cost_network.node[10].face$o[4].channel 	represented_price[10] 	0
scalar abilene_cost_network.node[11].face$o[1].channel 	price[11] 	0
scalar abilene_cost_network.node[11].face$o[1].channel 	represented_price[11] 	0
scalar abilene_cost_network.node[12].face$o[1].channel 	price[12] 	1
scalar abilene_cost_network.node[12].face$o[1].channel 	represented_price[12] 	1
scalar abilene_cost_network.node[13].face$o[1].channel 	price[13] 	10
scalar abilene_cost_network.node[13].face$o[1].channel 	represented_price[13] 	10
scalar abilene_cost_network.statistics 	p_hit 	0.10271704669706
scalar abilene_cost_network.statistics 	interests 	143065
scalar abilene_cost_network.statistics 	data 	104392.64285714
scalar abilene_cost_network.statistics 	hdistance 	3.3535431820986
scalar abilene_cost_network.statistics 	avg_time 	0.013691291617
scalar abilene_cost_network.statistics 	downloads 	535213
scalar abilene_cost_network.statistics 	total_cost 	889164
scalar abilene_cost_network.statistics 	total_replicas 	100000
scalar abilene_cost_network.statistics 	inner_hit 	0.38438715053633
scalar abilene_cost_network.statistics 	interests_sent 	541404
scalar abilene_cost_network.node[0].core_layer 	interests[0] 	180154
scalar abilene_cost_network.node[0].core_layer 	data[0] 	160424
scalar abilene_cost_network.node[0].core_layer 	repo_int[0] 	329484
scalar abilene_cost_network.node[0].content_store 	p_hit[0] 	0.098948677242803
scalar abilene_cost_network.node[0].content_store 	hits[0] 	17826
scalar abilene_cost_network.node[0].content_store 	misses[0] 	162328
scalar abilene_cost_network.node[0].content_store 	decision_yes[0] 	131
scalar abilene_cost_network.node[0].content_store 	decision_no[0] 	160293
scalar abilene_cost_network.node[0].content_store 	decision_ratio[0] 	0.00081658604697551
scalar abilene_cost_network.node[0].content_store 	correction_factor[0] 	1.8547833033756e-316
scalar abilene_cost_network.node[0].content_store 	xi[0] 	1
scalar abilene_cost_network.node[1].core_layer 	interests[1] 	263002
scalar abilene_cost_network.node[1].core_layer 	data[1] 	182990
scalar abilene_cost_network.node[1].content_store 	p_hit[1] 	0.30422202112531
scalar abilene_cost_network.node[1].content_store 	hits[1] 	80011
scalar abilene_cost_network.node[1].content_store 	misses[1] 	182991
scalar abilene_cost_network.node[1].content_store 	decision_yes[1] 	0
scalar abilene_cost_network.node[1].content_store 	decision_no[1] 	182990
scalar abilene_cost_network.node[1].content_store 	decision_ratio[1] 	0
scalar abilene_cost_network.node[1].content_store 	correction_factor[1] 	1.8549461474125e-316
scalar abilene_cost_network.node[1].content_store 	xi[1] 	1
scalar abilene_cost_network.node[2].core_layer 	interests[2] 	159573
scalar abilene_cost_network.node[2].core_layer 	data[2] 	158614
scalar abilene_cost_network.node[2].content_store 	p_hit[2] 	0.0059972551747476
scalar abilene_cost_network.node[2].content_store 	hits[2] 	957
scalar abilene_cost_network.node[2].content_store 	misses[2] 	158616
scalar abilene_cost_network.node[2].content_store 	decision_yes[2] 	0
scalar abilene_cost_network.node[2].content_store 	decision_no[2] 	158614
scalar abilene_cost_network.node[2].content_store 	decision_ratio[2] 	0
scalar abilene_cost_network.node[2].content_store 	correction_factor[2] 	1.8544868639881e-316
scalar abilene_cost_network.node[2].content_store 	xi[2] 	1
scalar abilene_cost_network.node[3].core_layer 	interests[3] 	158615
scalar abilene_cost_network.node[3].core_layer 	data[3] 	158614
scalar abilene_cost_network.node[3].content_store 	p_hit[3] 	0
scalar abilene_cost_network.node[3].content_store 	hits[3] 	0
scalar abilene_cost_network.node[3].content_store 	misses[3] 	158615
scalar abilene_cost_network.node[3].content_store 	decision_yes[3] 	0
scalar abilene_cost_network.node[3].content_store 	decision_no[3] 	158614
scalar abilene_cost_network.node[3].content_store 	decision_ratio[3] 	0
scalar abilene_cost_network.node[3].content_store 	correction_factor[3] 	1.8547003003471e-316
scalar abilene_cost_network.node[3].content_store 	xi[3] 	1
scalar abilene_cost_network.node[4].core_layer 	interests[4] 	112030
scalar abilene_cost_network.node[4].core_layer 	data[4] 	110204
scalar abilene_cost_network.node[4].content_store 	p_hit[4] 	0.016299205569937
scalar abilene_cost_network.node[4].content_store 	hits[4] 	1826
scalar abilene_cost_network.node[4].content_store 	misses[4] 	110204
scalar abilene_cost_network.node[4].content_store 	decision_yes[4] 	0
scalar abilene_cost_network.node[4].content_store 	decision_no[4] 	110204
scalar abilene_cost_network.node[4].content_store 	decision_ratio[4] 	0
scalar abilene_cost_network.node[4].content_store 	correction_factor[4] 	1.8553564195248e-316
scalar abilene_cost_network.node[4].content_store 	xi[4] 	1
scalar abilene_cost_network.node[5].core_layer 	interests[5] 	179862
scalar abilene_cost_network.node[5].core_layer 	data[5] 	154088
scalar abilene_cost_network.node[5].content_store 	p_hit[5] 	0.1240395414262
scalar abilene_cost_network.node[5].content_store 	hits[5] 	22310
scalar abilene_cost_network.node[5].content_store 	misses[5] 	157552
scalar abilene_cost_network.node[5].content_store 	decision_yes[5] 	141
scalar abilene_cost_network.node[5].content_store 	decision_no[5] 	153947
scalar abilene_cost_network.node[5].content_store 	decision_ratio[5] 	0.0009150615232854
scalar abilene_cost_network.node[5].content_store 	correction_factor[5] 	1.8551580027614e-316
scalar abilene_cost_network.node[5].content_store 	xi[5] 	1
scalar abilene_cost_network.node[6].core_layer 	interests[6] 	42058
scalar abilene_cost_network.node[6].core_layer 	data[6] 	39243
scalar abilene_cost_network.node[6].content_store 	p_hit[6] 	0.066931380474583
scalar abilene_cost_network.node[6].content_store 	hits[6] 	2815
scalar abilene_cost_network.node[6].content_store 	misses[6] 	39243
scalar abilene_cost_network.node[6].content_store 	decision_yes[6] 	0
scalar abilene_cost_network.node[6].content_store 	decision_no[6] 	39243
scalar abilene_cost_network.node[6].content_store 	decision_ratio[6] 	0
scalar abilene_cost_network.node[6].content_store 	correction_factor[6] 	1.8545161126743e-316
scalar abilene_cost_network.node[6].content_store 	xi[6] 	1
scalar abilene_cost_network.node[7].core_layer 	interests[7] 	136017
scalar abilene_cost_network.node[7].core_layer 	data[7] 	87394
scalar abilene_cost_network.node[7].content_store 	p_hit[7] 	0.35747737415176
scalar abilene_cost_network.node[7].content_store 	hits[7] 	48623
scalar abilene_cost_network.node[7].content_store 	misses[7] 	87394
scalar abilene_cost_network.node[7].content_store 	decision_yes[7] 	58
scalar abilene_cost_network.node[7].content_store 	decision_no[7] 	87336
scalar abilene_cost_network.node[7].content_store 	decision_ratio[7] 	0.00066366112090075
scalar abilene_cost_network.node[7].content_store 	correction_factor[7] 	1.8547761888303e-316
scalar abilene_cost_network.node[7].content_store 	xi[7] 	1
scalar abilene_cost_network.node[8].core_layer 	interests[8] 	50619
scalar abilene_cost_network.node[8].core_layer 	data[8] 	48362
scalar abilene_cost_network.node[8].content_store 	p_hit[8] 	0.044568245125348
scalar abilene_cost_network.node[8].content_store 	hits[8] 	2256
scalar abilene_cost_network.node[8].content_store 	misses[8] 	48363
scalar abilene_cost_network.node[8].content_store 	decision_yes[8] 	0
scalar abilene_cost_network.node[8].content_store 	decision_no[8] 	48362
scalar abilene_cost_network.node[8].content_store 	decision_ratio[8] 	0
scalar abilene_cost_network.node[8].content_store 	correction_factor[8] 	1.8553485144744e-316
scalar abilene_cost_network.node[8].content_store 	xi[8] 	1
scalar abilene_cost_network.node[9].core_layer 	interests[9] 	181388
scalar abilene_cost_network.node[9].core_layer 	data[9] 	153468
scalar abilene_cost_network.node[9].content_store 	p_hit[9] 	0.14938694952257
scalar abilene_cost_network.node[9].content_store 	hits[9] 	27097
scalar abilene_cost_network.node[9].content_store 	misses[9] 	154291
scalar abilene_cost_network.node[9].content_store 	decision_yes[9] 	132
scalar abilene_cost_network.node[9].content_store 	decision_no[9] 	153336
scalar abilene_cost_network.node[9].content_store 	decision_ratio[9] 	0.00086011416060677
scalar abilene_cost_network.node[9].content_store 	correction_factor[9] 	1.8568935565621e-316
scalar abilene_cost_network.node[9].content_store 	xi[9] 	1
scalar abilene_cost_network.node[10].core_layer 	interests[10] 	210108
scalar abilene_cost_network.node[10].core_layer 	data[10] 	208096
scalar abilene_cost_network.node[10].content_store 	p_hit[10] 	0.0095760275667752
scalar abilene_cost_network.node[10].content_store 	hits[10] 	2012
scalar abilene_cost_network.node[10].content_store 	misses[10] 	208096
scalar abilene_cost_network.node[10].content_store 	decision_yes[10] 	0
scalar abilene_cost_network.node[10].content_store 	decision_no[10] 	208096
scalar abilene_cost_network.node[10].content_store 	decision_ratio[10] 	0
scalar abilene_cost_network.node[10].content_store 	correction_factor[10] 	1.8559121445632e-316
scalar abilene_cost_network.node[10].content_store 	xi[10] 	1
scalar abilene_cost_network.node[11].core_layer 	interests[11] 	161913
scalar abilene_cost_network.node[11].core_layer 	repo_load[11] 	161913
scalar abilene_cost_network.node[11].core_layer 	data[11] 	0
scalar abilene_cost_network.node[11].content_store 	p_hit[11] 	0
scalar abilene_cost_network.node[11].content_store 	hits[11] 	0
scalar abilene_cost_network.node[11].content_store 	misses[11] 	161913
scalar abilene_cost_network.node[11].content_store 	decision_yes[11] 	0
scalar abilene_cost_network.node[11].content_store 	decision_no[11] 	161913
scalar abilene_cost_network.node[11].content_store 	decision_ratio[11] 	0
scalar abilene_cost_network.node[12].core_layer 	interests[12] 	87394
scalar abilene_cost_network.node[12].core_layer 	repo_load[12] 	87394
scalar abilene_cost_network.node[12].core_layer 	data[12] 	0
scalar abilene_cost_network.node[12].content_store 	p_hit[12] 	0
scalar abilene_cost_network.node[12].content_store 	hits[12] 	0
scalar abilene_cost_network.node[12].content_store 	misses[12] 	87394
scalar abilene_cost_network.node[12].content_store 	decision_yes[12] 	0
scalar abilene_cost_network.node[12].content_store 	decision_no[12] 	87394
scalar abilene_cost_network.node[12].content_store 	decision_ratio[12] 	0
scalar abilene_cost_network.node[13].core_layer 	interests[13] 	80177
scalar abilene_cost_network.node[13].core_layer 	repo_load[13] 	80177
scalar abilene_cost_network.node[13].core_layer 	data[13] 	0
scalar abilene_cost_network.node[13].content_store 	p_hit[13] 	0
scalar abilene_cost_network.node[13].content_store 	hits[13] 	0
scalar abilene_cost_network.node[13].content_store 	misses[13] 	80177
scalar abilene_cost_network.node[13].content_store 	decision_yes[13] 	0
scalar abilene_cost_network.node[13].content_store 	decision_no[13] 	80177
scalar abilene_cost_network.node[13].content_store 	decision_ratio[13] 	0
scalar abilene_cost_network.client[0] 	hdistance[0] 	2.9563758765778
scalar abilene_cost_network.client[0] 	downloads[0] 	178250
scalar abilene_cost_network.client[0] 	avg_time[0] 	0.013005327525
scalar abilene_cost_network.client[0] 	interests_sent[0] 	180154
scalar abilene_cost_network.client[5] 	hdistance[5] 	4.5074547330468
scalar abilene_cost_network.client[5] 	downloads[5] 	176398
scalar abilene_cost_network.client[5] 	avg_time[5] 	0.017455738967
scalar abilene_cost_network.client[5] 	interests_sent[5] 	179862
scalar abilene_cost_network.client[9] 	hdistance[9] 	2.596798936671
scalar abilene_cost_network.client[9] 	downloads[9] 	180565
scalar abilene_cost_network.client[9] 	avg_time[9] 	0.010612808361
scalar abilene_cost_network.client[9] 	interests_sent[9] 	181388
