version 2
run General-5-20140708-17:21:44-17209
attr D costprobtailcons
attr F spr
attr R lru
attr a 1
attr configname General
attr csize 1e3
attr ctlg 1e5
attr datetime 20140708-17:21:44
attr experiment General
attr inifile omnetpp.ini
attr iterationvars "$net=abilene_cost, $rep=3, $priceratiovalue=10, $weights=0.333_0.333_0.334, $lambda=100, $a=1, $ctlg=1e5, $F=spr, $ttl=1000, $D=costprobtailcons, $xi=1, $R=lru, $csize=1e3, $pricebits=0, $window=60, $variance=0.05, $mytime=1800"
attr iterationvars2 "$net=abilene_cost, $rep=3, $priceratiovalue=10, $weights=0.333_0.333_0.334, $lambda=100, $a=1, $ctlg=1e5, $F=spr, $ttl=1000, $D=costprobtailcons, $xi=1, $R=lru, $csize=1e3, $pricebits=0, $window=60, $variance=0.05, $mytime=1800, $repetition=0"
attr lambda 100
attr measurement "$net=abilene_cost, $rep=3, $priceratiovalue=10, $weights=0.333_0.333_0.334, $lambda=100, $a=1, $ctlg=1e5, $F=spr, $ttl=1000, $D=costprobtailcons, $xi=1, $R=lru, $csize=1e3, $pricebits=0, $window=60, $variance=0.05, $mytime=1800"
attr mytime 1800
attr net abilene_cost
attr network "networks.${net=abilene_cost, geant_cost}_network"
attr pricebits 0
attr priceratiovalue 10
attr processid 17209
attr rep 3
attr repetition 0
attr replication #0
attr resultdir results
attr runnumber 5
attr seedset 3
attr ttl 1000
attr variance 0.05
attr weights 0.333_0.333_0.334
attr window 60
attr xi 1

scalar . 	a 	1
scalar . 	csize 	1e3
scalar . 	ctlg 	1e5
scalar . 	lambda 	100
scalar . 	mytime 	1800
scalar . 	pricebits 	0
scalar . 	priceratiovalue 	10
scalar . 	rep 	3
scalar . 	ttl 	1000
scalar . 	variance 	0.05
scalar . 	window 	60
scalar . 	xi 	1
scalar abilene_cost_network.content_distribution 	repo-0 	11
scalar abilene_cost_network.content_distribution 	repo-1 	12
scalar abilene_cost_network.content_distribution 	repo-2 	13
scalar abilene_cost_network.content_distribution 	client-0 	5
scalar abilene_cost_network.content_distribution 	client-1 	0
scalar abilene_cost_network.content_distribution 	client-2 	9
scalar abilene_cost_network.content_distribution 	repo-0_card 	33496
scalar abilene_cost_network.content_distribution 	repo-1_card 	33170
scalar abilene_cost_network.content_distribution 	repo-2_card 	33334
scalar abilene_cost_network.statistics 	repo_popularity[0] 	0.34985511604573
scalar abilene_cost_network.statistics 	repo_popularity[1] 	0.30142619076767
scalar abilene_cost_network.statistics 	repo_popularity[2] 	0.3487186931866
scalar abilene_cost_network.statistics 	stabilization_time 	64.9
scalar abilene_cost_network.node[1].face$o[4].channel 	price[1] 	0
scalar abilene_cost_network.node[1].face$o[4].channel 	represented_price[1] 	0
scalar abilene_cost_network.node[7].face$o[4].channel 	price[7] 	0
scalar abilene_cost_network.node[7].face$o[4].channel 	represented_price[7] 	0
scalar abilene_cost_network.node[10].face$o[4].channel 	price[10] 	0
scalar abilene_cost_network.node[10].face$o[4].channel 	represented_price[10] 	0
scalar abilene_cost_network.node[11].face$o[1].channel 	price[11] 	0
scalar abilene_cost_network.node[11].face$o[1].channel 	represented_price[11] 	0
scalar abilene_cost_network.node[12].face$o[1].channel 	price[12] 	1
scalar abilene_cost_network.node[12].face$o[1].channel 	represented_price[12] 	1
scalar abilene_cost_network.node[13].face$o[1].channel 	price[13] 	10
scalar abilene_cost_network.node[13].face$o[1].channel 	represented_price[13] 	10
scalar abilene_cost_network.statistics 	p_hit 	0.086789331009063
scalar abilene_cost_network.statistics 	interests 	145053.21428571
scalar abilene_cost_network.statistics 	data 	106586.21428571
scalar abilene_cost_network.statistics 	hdistance 	3.4809925499184
scalar abilene_cost_network.statistics 	avg_time 	0.013614750487
scalar abilene_cost_network.statistics 	downloads 	532039
scalar abilene_cost_network.statistics 	total_cost 	886064
scalar abilene_cost_network.statistics 	total_replicas 	100000
scalar abilene_cost_network.statistics 	inner_hit 	0.3312727074519
scalar abilene_cost_network.statistics 	interests_sent 	538543
scalar abilene_cost_network.node[0].core_layer 	interests[0] 	179250
scalar abilene_cost_network.node[0].core_layer 	data[0] 	148498
scalar abilene_cost_network.node[0].core_layer 	repo_int[0] 	355789
scalar abilene_cost_network.node[0].content_store 	p_hit[0] 	0.16718549511855
scalar abilene_cost_network.node[0].content_store 	hits[0] 	29968
scalar abilene_cost_network.node[0].content_store 	misses[0] 	149282
scalar abilene_cost_network.node[0].content_store 	decision_yes[0] 	166
scalar abilene_cost_network.node[0].content_store 	decision_no[0] 	148332
scalar abilene_cost_network.node[0].content_store 	decision_ratio[0] 	0.001117860173201
scalar abilene_cost_network.node[0].content_store 	correction_factor[0] 	9.7114254801085e-317
scalar abilene_cost_network.node[0].content_store 	xi[0] 	1
scalar abilene_cost_network.node[1].core_layer 	interests[1] 	246036
scalar abilene_cost_network.node[1].core_layer 	data[1] 	184956
scalar abilene_cost_network.node[1].content_store 	p_hit[1] 	0.24826448162058
scalar abilene_cost_network.node[1].content_store 	hits[1] 	61082
scalar abilene_cost_network.node[1].content_store 	misses[1] 	184954
scalar abilene_cost_network.node[1].content_store 	decision_yes[1] 	0
scalar abilene_cost_network.node[1].content_store 	decision_no[1] 	184956
scalar abilene_cost_network.node[1].content_store 	decision_ratio[1] 	0
scalar abilene_cost_network.node[1].content_store 	correction_factor[1] 	9.7113385245549e-317
scalar abilene_cost_network.node[1].content_store 	xi[1] 	1
scalar abilene_cost_network.node[2].core_layer 	interests[2] 	157572
scalar abilene_cost_network.node[2].core_layer 	data[2] 	156407
scalar abilene_cost_network.node[2].content_store 	p_hit[2] 	0.0073997918411901
scalar abilene_cost_network.node[2].content_store 	hits[2] 	1166
scalar abilene_cost_network.node[2].content_store 	misses[2] 	156406
scalar abilene_cost_network.node[2].content_store 	decision_yes[2] 	0
scalar abilene_cost_network.node[2].content_store 	decision_no[2] 	156407
scalar abilene_cost_network.node[2].content_store 	decision_ratio[2] 	0
scalar abilene_cost_network.node[2].content_store 	correction_factor[2] 	9.7143661588326e-317
scalar abilene_cost_network.node[2].content_store 	xi[2] 	1
scalar abilene_cost_network.node[3].core_layer 	interests[3] 	156407
scalar abilene_cost_network.node[3].core_layer 	data[3] 	156403
scalar abilene_cost_network.node[3].content_store 	p_hit[3] 	2.5574302940405e-05
scalar abilene_cost_network.node[3].content_store 	hits[3] 	4
scalar abilene_cost_network.node[3].content_store 	misses[3] 	156403
scalar abilene_cost_network.node[3].content_store 	decision_yes[3] 	0
scalar abilene_cost_network.node[3].content_store 	decision_no[3] 	156403
scalar abilene_cost_network.node[3].content_store 	decision_ratio[3] 	0
scalar abilene_cost_network.node[3].content_store 	correction_factor[3] 	9.7110302275919e-317
scalar abilene_cost_network.node[3].content_store 	xi[3] 	1
scalar abilene_cost_network.node[4].core_layer 	interests[4] 	114532
scalar abilene_cost_network.node[4].core_layer 	data[4] 	113377
scalar abilene_cost_network.node[4].content_store 	p_hit[4] 	0.010084517864003
scalar abilene_cost_network.node[4].content_store 	hits[4] 	1155
scalar abilene_cost_network.node[4].content_store 	misses[4] 	113377
scalar abilene_cost_network.node[4].content_store 	decision_yes[4] 	0
scalar abilene_cost_network.node[4].content_store 	decision_no[4] 	113377
scalar abilene_cost_network.node[4].content_store 	decision_ratio[4] 	0
scalar abilene_cost_network.node[4].content_store 	correction_factor[4] 	9.7096863690352e-317
scalar abilene_cost_network.node[4].content_store 	xi[4] 	1
scalar abilene_cost_network.node[5].core_layer 	interests[5] 	179040
scalar abilene_cost_network.node[5].core_layer 	data[5] 	160366
scalar abilene_cost_network.node[5].content_store 	p_hit[5] 	0.083344504021448
scalar abilene_cost_network.node[5].content_store 	hits[5] 	14922
scalar abilene_cost_network.node[5].content_store 	misses[5] 	164118
scalar abilene_cost_network.node[5].content_store 	decision_yes[5] 	107
scalar abilene_cost_network.node[5].content_store 	decision_no[5] 	160259
scalar abilene_cost_network.node[5].content_store 	decision_ratio[5] 	0.0006672237257274
scalar abilene_cost_network.node[5].content_store 	correction_factor[5] 	9.7110302275919e-317
scalar abilene_cost_network.node[5].content_store 	xi[5] 	1
scalar abilene_cost_network.node[6].core_layer 	interests[6] 	45833
scalar abilene_cost_network.node[6].core_layer 	data[6] 	43616
scalar abilene_cost_network.node[6].content_store 	p_hit[6] 	0.0483494425414
scalar abilene_cost_network.node[6].content_store 	hits[6] 	2216
scalar abilene_cost_network.node[6].content_store 	misses[6] 	43617
scalar abilene_cost_network.node[6].content_store 	decision_yes[6] 	0
scalar abilene_cost_network.node[6].content_store 	decision_no[6] 	43616
scalar abilene_cost_network.node[6].content_store 	decision_ratio[6] 	0
scalar abilene_cost_network.node[6].content_store 	correction_factor[6] 	9.7110302275919e-317
scalar abilene_cost_network.node[6].content_store 	xi[6] 	1
scalar abilene_cost_network.node[7].core_layer 	interests[7] 	132268
scalar abilene_cost_network.node[7].core_layer 	data[7] 	89544
scalar abilene_cost_network.node[7].content_store 	p_hit[7] 	0.3230108567454
scalar abilene_cost_network.node[7].content_store 	hits[7] 	42724
scalar abilene_cost_network.node[7].content_store 	misses[7] 	89544
scalar abilene_cost_network.node[7].content_store 	decision_yes[7] 	0
scalar abilene_cost_network.node[7].content_store 	decision_no[7] 	89544
scalar abilene_cost_network.node[7].content_store 	decision_ratio[7] 	0
scalar abilene_cost_network.node[7].content_store 	correction_factor[7] 	9.7110302275919e-317
scalar abilene_cost_network.node[7].content_store 	xi[7] 	1
scalar abilene_cost_network.node[8].core_layer 	interests[8] 	48721
scalar abilene_cost_network.node[8].core_layer 	data[8] 	45626
scalar abilene_cost_network.node[8].content_store 	p_hit[8] 	0.063524968699329
scalar abilene_cost_network.node[8].content_store 	hits[8] 	3095
scalar abilene_cost_network.node[8].content_store 	misses[8] 	45626
scalar abilene_cost_network.node[8].content_store 	decision_yes[8] 	0
scalar abilene_cost_network.node[8].content_store 	decision_no[8] 	45626
scalar abilene_cost_network.node[8].content_store 	decision_ratio[8] 	0
scalar abilene_cost_network.node[8].content_store 	correction_factor[8] 	9.7096863690352e-317
scalar abilene_cost_network.node[8].content_store 	xi[8] 	1
scalar abilene_cost_network.node[9].core_layer 	interests[9] 	180253
scalar abilene_cost_network.node[9].core_layer 	data[9] 	160072
scalar abilene_cost_network.node[9].content_store 	p_hit[9] 	0.10104131415289
scalar abilene_cost_network.node[9].content_store 	hits[9] 	18213
scalar abilene_cost_network.node[9].content_store 	misses[9] 	162040
scalar abilene_cost_network.node[9].content_store 	decision_yes[9] 	134
scalar abilene_cost_network.node[9].content_store 	decision_no[9] 	159938
scalar abilene_cost_network.node[9].content_store 	decision_ratio[9] 	0.00083712329451747
scalar abilene_cost_network.node[9].content_store 	correction_factor[9] 	9.7333580422587e-317
scalar abilene_cost_network.node[9].content_store 	xi[9] 	1
scalar abilene_cost_network.node[10].core_layer 	interests[10] 	235044
scalar abilene_cost_network.node[10].core_layer 	data[10] 	233342
scalar abilene_cost_network.node[10].content_store 	p_hit[10] 	0.0072411973928286
scalar abilene_cost_network.node[10].content_store 	hits[10] 	1702
scalar abilene_cost_network.node[10].content_store 	misses[10] 	233342
scalar abilene_cost_network.node[10].content_store 	decision_yes[10] 	0
scalar abilene_cost_network.node[10].content_store 	decision_no[10] 	233342
scalar abilene_cost_network.node[10].content_store 	decision_ratio[10] 	0
scalar abilene_cost_network.node[10].content_store 	correction_factor[10] 	9.7096863690352e-317
scalar abilene_cost_network.node[10].content_store 	xi[10] 	1
scalar abilene_cost_network.node[11].core_layer 	interests[11] 	186593
scalar abilene_cost_network.node[11].core_layer 	repo_load[11] 	186593
scalar abilene_cost_network.node[11].core_layer 	data[11] 	0
scalar abilene_cost_network.node[11].content_store 	p_hit[11] 	0
scalar abilene_cost_network.node[11].content_store 	hits[11] 	0
scalar abilene_cost_network.node[11].content_store 	misses[11] 	186593
scalar abilene_cost_network.node[11].content_store 	decision_yes[11] 	0
scalar abilene_cost_network.node[11].content_store 	decision_no[11] 	186593
scalar abilene_cost_network.node[11].content_store 	decision_ratio[11] 	0
scalar abilene_cost_network.node[12].core_layer 	interests[12] 	89544
scalar abilene_cost_network.node[12].core_layer 	repo_load[12] 	89544
scalar abilene_cost_network.node[12].core_layer 	data[12] 	0
scalar abilene_cost_network.node[12].content_store 	p_hit[12] 	0
scalar abilene_cost_network.node[12].content_store 	hits[12] 	0
scalar abilene_cost_network.node[12].content_store 	misses[12] 	89544
scalar abilene_cost_network.node[12].content_store 	decision_yes[12] 	0
scalar abilene_cost_network.node[12].content_store 	decision_no[12] 	89544
scalar abilene_cost_network.node[12].content_store 	decision_ratio[12] 	0
scalar abilene_cost_network.node[13].core_layer 	interests[13] 	79652
scalar abilene_cost_network.node[13].core_layer 	repo_load[13] 	79652
scalar abilene_cost_network.node[13].core_layer 	data[13] 	0
scalar abilene_cost_network.node[13].content_store 	p_hit[13] 	0
scalar abilene_cost_network.node[13].content_store 	hits[13] 	0
scalar abilene_cost_network.node[13].content_store 	misses[13] 	79652
scalar abilene_cost_network.node[13].content_store 	decision_yes[13] 	0
scalar abilene_cost_network.node[13].content_store 	decision_no[13] 	79652
scalar abilene_cost_network.node[13].content_store 	decision_ratio[13] 	0
scalar abilene_cost_network.client[0] 	hdistance[0] 	2.89846805554
scalar abilene_cost_network.client[0] 	downloads[0] 	178466
scalar abilene_cost_network.client[0] 	avg_time[0] 	0.011685030466
scalar abilene_cost_network.client[0] 	interests_sent[0] 	179250
scalar abilene_cost_network.client[5] 	hdistance[5] 	4.7874184199717
scalar abilene_cost_network.client[5] 	downloads[5] 	175288
scalar abilene_cost_network.client[5] 	avg_time[5] 	0.018516764833
scalar abilene_cost_network.client[5] 	interests_sent[5] 	179040
scalar abilene_cost_network.client[9] 	hdistance[9] 	2.7570911742435
scalar abilene_cost_network.client[9] 	downloads[9] 	178285
scalar abilene_cost_network.client[9] 	avg_time[9] 	0.010642456164
scalar abilene_cost_network.client[9] 	interests_sent[9] 	180253
