version 2
run General-85-20140424-16:04:16-16339
attr D fix0
attr F nrr
attr R lru
attr a 0
attr configname General
attr csize 10
attr ctlg 10^3
attr datetime 20140424-16:04:16
attr experiment General
attr inifile omnetpp.ini
attr iterationvars "$net=simple_scenario, $rep=2, $priceratiovalue=5, $a=0, $ctlg=10^3, $F=nrr, $ttl=1000, $D=fix0, $R=lru, $csize=10"
attr iterationvars2 "$net=simple_scenario, $rep=2, $priceratiovalue=5, $a=0, $ctlg=10^3, $F=nrr, $ttl=1000, $D=fix0, $R=lru, $csize=10, $repetition=0"
attr measurement "$net=simple_scenario, $rep=2, $priceratiovalue=5, $a=0, $ctlg=10^3, $F=nrr, $ttl=1000, $D=fix0, $R=lru, $csize=10"
attr net simple_scenario
attr network networks.${net=simple_scenario}_network
attr priceratiovalue 5
attr processid 16339
attr rep 2
attr repetition 0
attr replication #0
attr resultdir results
attr runnumber 85
attr seedset 2
attr ttl 1000

scalar . 	a 	0
scalar . 	csize 	10
scalar . 	priceratiovalue 	5
scalar . 	rep 	2
scalar . 	ttl 	1000
scalar simple_scenario_network.content_distribution 	repo-0 	3
scalar simple_scenario_network.content_distribution 	repo-1 	4
scalar simple_scenario_network.content_distribution 	client-0 	0
scalar simple_scenario_network.content_distribution 	repo-0_card 	504
scalar simple_scenario_network.content_distribution 	repo-1_card 	496
scalar simple_scenario_network.statistics 	p_hit 	0
scalar simple_scenario_network.statistics 	interests 	107961.6
scalar simple_scenario_network.statistics 	data 	71974.4
scalar simple_scenario_network.statistics 	hdistance 	3
scalar simple_scenario_network.statistics 	avg_time 	0.001999738071
scalar simple_scenario_network.statistics 	downloads 	179936
scalar simple_scenario_network.statistics 	total_cost 	89321
scalar simple_scenario_network.node[0].core_layer 	interests[0] 	179936
scalar simple_scenario_network.node[0].core_layer 	data[0] 	179936
scalar simple_scenario_network.node[0].core_layer 	repo_int[0] 	179936
scalar simple_scenario_network.node[0].content_store 	p_hit[0] 	0
scalar simple_scenario_network.node[0].content_store 	hits[0] 	0
scalar simple_scenario_network.node[0].content_store 	misses[0] 	179936
scalar simple_scenario_network.node[1].core_layer 	interests[1] 	90938
scalar simple_scenario_network.node[1].core_layer 	data[1] 	90938
scalar simple_scenario_network.node[1].content_store 	p_hit[1] 	0
scalar simple_scenario_network.node[1].content_store 	hits[1] 	0
scalar simple_scenario_network.node[1].content_store 	misses[1] 	90938
scalar simple_scenario_network.node[2].core_layer 	interests[2] 	88998
scalar simple_scenario_network.node[2].core_layer 	data[2] 	88998
scalar simple_scenario_network.node[2].content_store 	p_hit[2] 	0
scalar simple_scenario_network.node[2].content_store 	hits[2] 	0
scalar simple_scenario_network.node[2].content_store 	misses[2] 	88998
scalar simple_scenario_network.node[3].core_layer 	interests[3] 	90938
scalar simple_scenario_network.node[3].core_layer 	repo_load[3] 	90938
scalar simple_scenario_network.node[3].core_layer 	data[3] 	0
scalar simple_scenario_network.node[3].content_store 	p_hit[3] 	0
scalar simple_scenario_network.node[3].content_store 	hits[3] 	0
scalar simple_scenario_network.node[3].content_store 	misses[3] 	90938
scalar simple_scenario_network.node[4].core_layer 	interests[4] 	88998
scalar simple_scenario_network.node[4].core_layer 	repo_load[4] 	88998
scalar simple_scenario_network.node[4].core_layer 	data[4] 	0
scalar simple_scenario_network.node[4].content_store 	p_hit[4] 	0
scalar simple_scenario_network.node[4].content_store 	hits[4] 	0
scalar simple_scenario_network.node[4].content_store 	misses[4] 	88998
scalar simple_scenario_network.client[0] 	hdistance[0] 	3
scalar simple_scenario_network.client[0] 	downloads[0] 	179936
scalar simple_scenario_network.client[0] 	avg_time[0] 	0.001999738071
