version 2
run General-19-20140625-18:20:58-12207
attr D costprobprodcorr0.01
attr F nrr
attr R lru
attr a 1
attr configname General
attr csize 1e3
attr ctlg 1e5
attr datetime 20140625-18:20:58
attr experiment General
attr inifile omnetpp.ini
attr iterationvars "$net=abilene_cost, $rep=1, $priceratiovalue=10, $weights=0.333_0.333_0.334, $lambda=100, $a=1, $ctlg=1e5, $F=nrr, $ttl=1000, $D=costprobprodcorr0.01, $xi=1.75, $R=lru, $csize=1e3, $pricebits=0, $mytime=1800"
attr iterationvars2 "$net=abilene_cost, $rep=1, $priceratiovalue=10, $weights=0.333_0.333_0.334, $lambda=100, $a=1, $ctlg=1e5, $F=nrr, $ttl=1000, $D=costprobprodcorr0.01, $xi=1.75, $R=lru, $csize=1e3, $pricebits=0, $mytime=1800, $repetition=0"
attr lambda 100
attr measurement "$net=abilene_cost, $rep=1, $priceratiovalue=10, $weights=0.333_0.333_0.334, $lambda=100, $a=1, $ctlg=1e5, $F=nrr, $ttl=1000, $D=costprobprodcorr0.01, $xi=1.75, $R=lru, $csize=1e3, $pricebits=0, $mytime=1800"
attr mytime 1800
attr net abilene_cost
attr network "networks.${net=geant_cost, abilene_cost}_network"
attr pricebits 0
attr priceratiovalue 10
attr processid 12207
attr rep 1
attr repetition 0
attr replication #0
attr resultdir results
attr runnumber 19
attr seedset 1
attr ttl 1000
attr weights 0.333_0.333_0.334
attr xi 1.75

scalar . 	a 	1
scalar . 	csize 	1e3
scalar . 	ctlg 	1e5
scalar . 	lambda 	100
scalar . 	mytime 	1800
scalar . 	pricebits 	0
scalar . 	priceratiovalue 	10
scalar . 	rep 	1
scalar . 	ttl 	1000
scalar . 	xi 	1.75
scalar abilene_cost_network.content_distribution 	repo-0 	11
scalar abilene_cost_network.content_distribution 	repo-1 	12
scalar abilene_cost_network.content_distribution 	repo-2 	13
scalar abilene_cost_network.content_distribution 	client-0 	5
scalar abilene_cost_network.content_distribution 	client-1 	0
scalar abilene_cost_network.content_distribution 	client-2 	9
scalar abilene_cost_network.content_distribution 	repo-0_card 	33396
scalar abilene_cost_network.content_distribution 	repo-1_card 	33039
scalar abilene_cost_network.content_distribution 	repo-2_card 	33565
scalar abilene_cost_network.statistics 	repo_popularity[0] 	0.28686251265602
scalar abilene_cost_network.statistics 	repo_popularity[1] 	0.2886063426465
scalar abilene_cost_network.statistics 	repo_popularity[2] 	0.42453114469748
scalar abilene_cost_network.statistics 	stabilization_time 	11432.3
scalar abilene_cost_network.node[1].face$o[4].channel 	price[1] 	0
scalar abilene_cost_network.node[1].face$o[4].channel 	represented_price[1] 	0
scalar abilene_cost_network.node[7].face$o[4].channel 	price[7] 	0
scalar abilene_cost_network.node[7].face$o[4].channel 	represented_price[7] 	0
scalar abilene_cost_network.node[10].face$o[4].channel 	price[10] 	0
scalar abilene_cost_network.node[10].face$o[4].channel 	represented_price[10] 	0
scalar abilene_cost_network.node[11].face$o[1].channel 	price[11] 	0
scalar abilene_cost_network.node[11].face$o[1].channel 	represented_price[11] 	0
scalar abilene_cost_network.node[12].face$o[1].channel 	price[12] 	1
scalar abilene_cost_network.node[12].face$o[1].channel 	represented_price[12] 	1
scalar abilene_cost_network.node[13].face$o[1].channel 	price[13] 	10
scalar abilene_cost_network.node[13].face$o[1].channel 	represented_price[13] 	10
scalar abilene_cost_network.statistics 	p_hit 	0.11002082448
scalar abilene_cost_network.statistics 	interests 	148417.35714286
scalar abilene_cost_network.statistics 	data 	109840.42857143
scalar abilene_cost_network.statistics 	hdistance 	3.4637350548882
scalar abilene_cost_network.statistics 	avg_time 	0.015125073137
scalar abilene_cost_network.statistics 	downloads 	531567
scalar abilene_cost_network.statistics 	total_cost 	786786
scalar abilene_cost_network.statistics 	total_replicas 	100000
scalar abilene_cost_network.statistics 	inner_hit 	0.43056848901456
scalar abilene_cost_network.statistics 	interests_sent 	540064
scalar abilene_cost_network.node[0].core_layer 	interests[0] 	195458
scalar abilene_cost_network.node[0].core_layer 	data[0] 	166688
scalar abilene_cost_network.node[0].core_layer 	repo_int[0] 	302691
scalar abilene_cost_network.node[0].content_store 	p_hit[0] 	0.13461715560376
scalar abilene_cost_network.node[0].content_store 	hits[0] 	26312
scalar abilene_cost_network.node[0].content_store 	misses[0] 	169146
scalar abilene_cost_network.node[0].content_store 	decision_yes[0] 	724
scalar abilene_cost_network.node[0].content_store 	decision_no[0] 	165964
scalar abilene_cost_network.node[0].content_store 	decision_ratio[0] 	0.004343444039163
scalar abilene_cost_network.node[0].content_store 	correction_factor[0] 	0.00052314387834144
scalar abilene_cost_network.node[0].content_store 	xi[0] 	1.75
scalar abilene_cost_network.node[1].core_layer 	interests[1] 	253470
scalar abilene_cost_network.node[1].core_layer 	data[1] 	188094
scalar abilene_cost_network.node[1].content_store 	p_hit[1] 	0.25790823371602
scalar abilene_cost_network.node[1].content_store 	hits[1] 	65372
scalar abilene_cost_network.node[1].content_store 	misses[1] 	188098
scalar abilene_cost_network.node[1].content_store 	decision_yes[1] 	2106
scalar abilene_cost_network.node[1].content_store 	decision_no[1] 	185988
scalar abilene_cost_network.node[1].content_store 	decision_ratio[1] 	0.011196529394877
scalar abilene_cost_network.node[1].content_store 	correction_factor[1] 	0.00052314387834144
scalar abilene_cost_network.node[1].content_store 	xi[1] 	1.75
scalar abilene_cost_network.node[2].core_layer 	interests[2] 	187365
scalar abilene_cost_network.node[2].core_layer 	data[2] 	161897
scalar abilene_cost_network.node[2].content_store 	p_hit[2] 	0.13447015184266
scalar abilene_cost_network.node[2].content_store 	hits[2] 	25195
scalar abilene_cost_network.node[2].content_store 	misses[2] 	162170
scalar abilene_cost_network.node[2].content_store 	decision_yes[2] 	691
scalar abilene_cost_network.node[2].content_store 	decision_no[2] 	161206
scalar abilene_cost_network.node[2].content_store 	decision_ratio[2] 	0.0042681457964014
scalar abilene_cost_network.node[2].content_store 	correction_factor[2] 	0.00052314387834144
scalar abilene_cost_network.node[2].content_store 	xi[2] 	1.75
scalar abilene_cost_network.node[3].core_layer 	interests[3] 	180820
scalar abilene_cost_network.node[3].core_layer 	data[3] 	146591
scalar abilene_cost_network.node[3].content_store 	p_hit[3] 	0.1892821590532
scalar abilene_cost_network.node[3].content_store 	hits[3] 	34226
scalar abilene_cost_network.node[3].content_store 	misses[3] 	146594
scalar abilene_cost_network.node[3].content_store 	decision_yes[3] 	651
scalar abilene_cost_network.node[3].content_store 	decision_no[3] 	145940
scalar abilene_cost_network.node[3].content_store 	decision_ratio[3] 	0.0044409274784946
scalar abilene_cost_network.node[3].content_store 	correction_factor[3] 	0.00052314387834144
scalar abilene_cost_network.node[3].content_store 	xi[3] 	1.75
scalar abilene_cost_network.node[4].core_layer 	interests[4] 	126940
scalar abilene_cost_network.node[4].core_layer 	data[4] 	120248
scalar abilene_cost_network.node[4].content_store 	p_hit[4] 	0.052702063967229
scalar abilene_cost_network.node[4].content_store 	hits[4] 	6690
scalar abilene_cost_network.node[4].content_store 	misses[4] 	120250
scalar abilene_cost_network.node[4].content_store 	decision_yes[4] 	698
scalar abilene_cost_network.node[4].content_store 	decision_no[4] 	119550
scalar abilene_cost_network.node[4].content_store 	decision_ratio[4] 	0.0058046703479476
scalar abilene_cost_network.node[4].content_store 	correction_factor[4] 	0.00052314387834144
scalar abilene_cost_network.node[4].content_store 	xi[4] 	1.75
scalar abilene_cost_network.node[5].core_layer 	interests[5] 	182387
scalar abilene_cost_network.node[5].core_layer 	data[5] 	169794
scalar abilene_cost_network.node[5].content_store 	p_hit[5] 	0.051440069741813
scalar abilene_cost_network.node[5].content_store 	hits[5] 	9382
scalar abilene_cost_network.node[5].content_store 	misses[5] 	173005
scalar abilene_cost_network.node[5].content_store 	decision_yes[5] 	674
scalar abilene_cost_network.node[5].content_store 	decision_no[5] 	169120
scalar abilene_cost_network.node[5].content_store 	decision_ratio[5] 	0.0039695160017433
scalar abilene_cost_network.node[5].content_store 	correction_factor[5] 	0.00052314387834144
scalar abilene_cost_network.node[5].content_store 	xi[5] 	1.75
scalar abilene_cost_network.node[6].core_layer 	interests[6] 	50255
scalar abilene_cost_network.node[6].core_layer 	data[6] 	42886
scalar abilene_cost_network.node[6].content_store 	p_hit[6] 	0.1466321759029
scalar abilene_cost_network.node[6].content_store 	hits[6] 	7369
scalar abilene_cost_network.node[6].content_store 	misses[6] 	42886
scalar abilene_cost_network.node[6].content_store 	decision_yes[6] 	17
scalar abilene_cost_network.node[6].content_store 	decision_no[6] 	42869
scalar abilene_cost_network.node[6].content_store 	decision_ratio[6] 	0.00039639975749662
scalar abilene_cost_network.node[6].content_store 	correction_factor[6] 	0.00052314387834144
scalar abilene_cost_network.node[6].content_store 	xi[6] 	1.75
scalar abilene_cost_network.node[7].core_layer 	interests[7] 	117343
scalar abilene_cost_network.node[7].core_layer 	data[7] 	88342
scalar abilene_cost_network.node[7].content_store 	p_hit[7] 	0.24713873004781
scalar abilene_cost_network.node[7].content_store 	hits[7] 	29000
scalar abilene_cost_network.node[7].content_store 	misses[7] 	88343
scalar abilene_cost_network.node[7].content_store 	decision_yes[7] 	55
scalar abilene_cost_network.node[7].content_store 	decision_no[7] 	88287
scalar abilene_cost_network.node[7].content_store 	decision_ratio[7] 	0.0006225804260714
scalar abilene_cost_network.node[7].content_store 	correction_factor[7] 	0.00052314387834144
scalar abilene_cost_network.node[7].content_store 	xi[7] 	1.75
scalar abilene_cost_network.node[8].core_layer 	interests[8] 	66982
scalar abilene_cost_network.node[8].core_layer 	data[8] 	63854
scalar abilene_cost_network.node[8].content_store 	p_hit[8] 	0.04669911319459
scalar abilene_cost_network.node[8].content_store 	hits[8] 	3128
scalar abilene_cost_network.node[8].content_store 	misses[8] 	63854
scalar abilene_cost_network.node[8].content_store 	decision_yes[8] 	7
scalar abilene_cost_network.node[8].content_store 	decision_no[8] 	63847
scalar abilene_cost_network.node[8].content_store 	decision_ratio[8] 	0.00010962508221881
scalar abilene_cost_network.node[8].content_store 	correction_factor[8] 	0.00052314387834144
scalar abilene_cost_network.node[8].content_store 	xi[8] 	1.75
scalar abilene_cost_network.node[9].core_layer 	interests[9] 	189115
scalar abilene_cost_network.node[9].core_layer 	data[9] 	172120
scalar abilene_cost_network.node[9].content_store 	p_hit[9] 	0.074912090526928
scalar abilene_cost_network.node[9].content_store 	hits[9] 	14167
scalar abilene_cost_network.node[9].content_store 	misses[9] 	174948
scalar abilene_cost_network.node[9].content_store 	decision_yes[9] 	720
scalar abilene_cost_network.node[9].content_store 	decision_no[9] 	171400
scalar abilene_cost_network.node[9].content_store 	decision_ratio[9] 	0.0041831280501975
scalar abilene_cost_network.node[9].content_store 	correction_factor[9] 	0.00052314387834144
scalar abilene_cost_network.node[9].content_store 	xi[9] 	1.75
scalar abilene_cost_network.node[10].core_layer 	interests[10] 	225017
scalar abilene_cost_network.node[10].core_layer 	data[10] 	217252
scalar abilene_cost_network.node[10].content_store 	p_hit[10] 	0.034508503801935
scalar abilene_cost_network.node[10].content_store 	hits[10] 	7765
scalar abilene_cost_network.node[10].content_store 	misses[10] 	217252
scalar abilene_cost_network.node[10].content_store 	decision_yes[10] 	684
scalar abilene_cost_network.node[10].content_store 	decision_no[10] 	216568
scalar abilene_cost_network.node[10].content_store 	decision_ratio[10] 	0.0031484175059378
scalar abilene_cost_network.node[10].content_store 	correction_factor[10] 	0.00052314387834144
scalar abilene_cost_network.node[10].content_store 	xi[10] 	1.75
scalar abilene_cost_network.node[11].core_layer 	interests[11] 	154968
scalar abilene_cost_network.node[11].core_layer 	repo_load[11] 	154968
scalar abilene_cost_network.node[11].core_layer 	data[11] 	0
scalar abilene_cost_network.node[11].content_store 	p_hit[11] 	0
scalar abilene_cost_network.node[11].content_store 	hits[11] 	0
scalar abilene_cost_network.node[11].content_store 	misses[11] 	154968
scalar abilene_cost_network.node[11].content_store 	decision_yes[11] 	0
scalar abilene_cost_network.node[11].content_store 	decision_no[11] 	154968
scalar abilene_cost_network.node[11].content_store 	decision_ratio[11] 	0
scalar abilene_cost_network.node[12].core_layer 	interests[12] 	76716
scalar abilene_cost_network.node[12].core_layer 	repo_load[12] 	76716
scalar abilene_cost_network.node[12].core_layer 	data[12] 	0
scalar abilene_cost_network.node[12].content_store 	p_hit[12] 	0
scalar abilene_cost_network.node[12].content_store 	hits[12] 	0
scalar abilene_cost_network.node[12].content_store 	misses[12] 	76716
scalar abilene_cost_network.node[12].content_store 	decision_yes[12] 	0
scalar abilene_cost_network.node[12].content_store 	decision_no[12] 	76716
scalar abilene_cost_network.node[12].content_store 	decision_ratio[12] 	0
scalar abilene_cost_network.node[13].core_layer 	interests[13] 	71007
scalar abilene_cost_network.node[13].core_layer 	repo_load[13] 	71007
scalar abilene_cost_network.node[13].core_layer 	data[13] 	0
scalar abilene_cost_network.node[13].content_store 	p_hit[13] 	0
scalar abilene_cost_network.node[13].content_store 	hits[13] 	0
scalar abilene_cost_network.node[13].content_store 	misses[13] 	71007
scalar abilene_cost_network.node[13].content_store 	decision_yes[13] 	0
scalar abilene_cost_network.node[13].content_store 	decision_no[13] 	71007
scalar abilene_cost_network.node[13].content_store 	decision_ratio[13] 	0
scalar abilene_cost_network.client[0] 	hdistance[0] 	2.9588223391339
scalar abilene_cost_network.client[0] 	downloads[0] 	177912
scalar abilene_cost_network.client[0] 	avg_time[0] 	0.013617215693
scalar abilene_cost_network.client[0] 	interests_sent[0] 	180370
scalar abilene_cost_network.client[5] 	hdistance[5] 	4.5645799644928
scalar abilene_cost_network.client[5] 	downloads[5] 	176866
scalar abilene_cost_network.client[5] 	avg_time[5] 	0.018640140185
scalar abilene_cost_network.client[5] 	interests_sent[5] 	180077
scalar abilene_cost_network.client[9] 	hdistance[9] 	2.8678028610377
scalar abilene_cost_network.client[9] 	downloads[9] 	176789
scalar abilene_cost_network.client[9] 	avg_time[9] 	0.013117863533
scalar abilene_cost_network.client[9] 	interests_sent[9] 	179617
