version 2
run General-0-20140620-16:11:59-3729
attr D lce
attr F nrr
attr R lru
attr a 1
attr configname General
attr csize 1e1
attr ctlg 1e2
attr datetime 20140620-16:11:59
attr experiment General
attr inifile omnetpp.ini
attr iterationvars "$net=abilene, $rep=1, $priceratiovalue=10, $weights=0.333_0.333_0.334, $lambda=1, $a=1, $ctlg=1e2, $F=nrr, $ttl=1000, $D=lce, $xi=1, $R=lru, $csize=1e1, $pricebits=0, $mytime=1800"
attr iterationvars2 "$net=abilene, $rep=1, $priceratiovalue=10, $weights=0.333_0.333_0.334, $lambda=1, $a=1, $ctlg=1e2, $F=nrr, $ttl=1000, $D=lce, $xi=1, $R=lru, $csize=1e1, $pricebits=0, $mytime=1800, $repetition=0"
attr lambda 1
attr measurement "$net=abilene, $rep=1, $priceratiovalue=10, $weights=0.333_0.333_0.334, $lambda=1, $a=1, $ctlg=1e2, $F=nrr, $ttl=1000, $D=lce, $xi=1, $R=lru, $csize=1e1, $pricebits=0, $mytime=1800"
attr mytime 1800
attr net abilene
attr network networks.${net=abilene}_network
attr pricebits 0
attr priceratiovalue 10
attr processid 3729
attr rep 1
attr repetition 0
attr replication #0
attr resultdir results
attr runnumber 0
attr seedset 1
attr ttl 1000
attr weights 0.333_0.333_0.334
attr xi 1

scalar . 	a 	1
scalar . 	csize 	1e1
scalar . 	ctlg 	1e2
scalar . 	lambda 	1
scalar . 	mytime 	1800
scalar . 	pricebits 	0
scalar . 	priceratiovalue 	10
scalar . 	rep 	1
scalar . 	ttl 	1000
scalar . 	xi 	1
scalar abilene_network.content_distribution 	repo-0 	4
scalar abilene_network.content_distribution 	client-0 	0
scalar abilene_network.content_distribution 	client-1 	3
scalar abilene_network.content_distribution 	client-2 	7
scalar abilene_network.content_distribution 	repo-0_card 	100
scalar abilene_network.statistics 	stabilization_time 	36120
scalar abilene_network.statistics 	p_hit 	1
scalar abilene_network.statistics 	interests 	489
scalar abilene_network.statistics 	data 	0
scalar abilene_network.statistics 	hdistance 	0
scalar abilene_network.statistics 	avg_time 	0
scalar abilene_network.statistics 	downloads 	5379
scalar abilene_network.statistics 	total_cost 	0
scalar abilene_network.statistics 	total_replicas 	100
scalar abilene_network.statistics 	interests_sent 	5379
scalar abilene_network.node[0].core_layer 	interests[0] 	1737
scalar abilene_network.node[0].core_layer 	data[0] 	0
scalar abilene_network.node[0].content_store 	p_hit[0] 	1
scalar abilene_network.node[0].content_store 	hits[0] 	1737
scalar abilene_network.node[0].content_store 	misses[0] 	0
scalar abilene_network.node[0].content_store 	decision_yes[0] 	0
scalar abilene_network.node[0].content_store 	decision_no[0] 	0
scalar abilene_network.node[0].content_store 	decision_ratio[0] 	0
scalar abilene_network.node[1].core_layer 	interests[1] 	0
scalar abilene_network.node[1].core_layer 	data[1] 	0
scalar abilene_network.node[1].content_store 	p_hit[1] 	-nan
scalar abilene_network.node[1].content_store 	hits[1] 	0
scalar abilene_network.node[1].content_store 	misses[1] 	0
scalar abilene_network.node[1].content_store 	decision_yes[1] 	0
scalar abilene_network.node[1].content_store 	decision_no[1] 	0
scalar abilene_network.node[1].content_store 	decision_ratio[1] 	0
scalar abilene_network.node[2].core_layer 	interests[2] 	0
scalar abilene_network.node[2].core_layer 	data[2] 	0
scalar abilene_network.node[2].content_store 	p_hit[2] 	-nan
scalar abilene_network.node[2].content_store 	hits[2] 	0
scalar abilene_network.node[2].content_store 	misses[2] 	0
scalar abilene_network.node[2].content_store 	decision_yes[2] 	0
scalar abilene_network.node[2].content_store 	decision_no[2] 	0
scalar abilene_network.node[2].content_store 	decision_ratio[2] 	0
scalar abilene_network.node[3].core_layer 	interests[3] 	1807
scalar abilene_network.node[3].core_layer 	data[3] 	0
scalar abilene_network.node[3].content_store 	p_hit[3] 	1
scalar abilene_network.node[3].content_store 	hits[3] 	1807
scalar abilene_network.node[3].content_store 	misses[3] 	0
scalar abilene_network.node[3].content_store 	decision_yes[3] 	0
scalar abilene_network.node[3].content_store 	decision_no[3] 	0
scalar abilene_network.node[3].content_store 	decision_ratio[3] 	0
scalar abilene_network.node[4].core_layer 	interests[4] 	0
scalar abilene_network.node[4].core_layer 	data[4] 	0
scalar abilene_network.node[4].content_store 	p_hit[4] 	-nan
scalar abilene_network.node[4].content_store 	hits[4] 	0
scalar abilene_network.node[4].content_store 	misses[4] 	0
scalar abilene_network.node[4].content_store 	decision_yes[4] 	0
scalar abilene_network.node[4].content_store 	decision_no[4] 	0
scalar abilene_network.node[4].content_store 	decision_ratio[4] 	0
scalar abilene_network.node[5].core_layer 	interests[5] 	0
scalar abilene_network.node[5].core_layer 	data[5] 	0
scalar abilene_network.node[5].content_store 	p_hit[5] 	-nan
scalar abilene_network.node[5].content_store 	hits[5] 	0
scalar abilene_network.node[5].content_store 	misses[5] 	0
scalar abilene_network.node[5].content_store 	decision_yes[5] 	0
scalar abilene_network.node[5].content_store 	decision_no[5] 	0
scalar abilene_network.node[5].content_store 	decision_ratio[5] 	0
scalar abilene_network.node[6].core_layer 	interests[6] 	0
scalar abilene_network.node[6].core_layer 	data[6] 	0
scalar abilene_network.node[6].content_store 	p_hit[6] 	-nan
scalar abilene_network.node[6].content_store 	hits[6] 	0
scalar abilene_network.node[6].content_store 	misses[6] 	0
scalar abilene_network.node[6].content_store 	decision_yes[6] 	0
scalar abilene_network.node[6].content_store 	decision_no[6] 	0
scalar abilene_network.node[6].content_store 	decision_ratio[6] 	0
scalar abilene_network.node[7].core_layer 	interests[7] 	1835
scalar abilene_network.node[7].core_layer 	data[7] 	0
scalar abilene_network.node[7].content_store 	p_hit[7] 	1
scalar abilene_network.node[7].content_store 	hits[7] 	1835
scalar abilene_network.node[7].content_store 	misses[7] 	0
scalar abilene_network.node[7].content_store 	decision_yes[7] 	0
scalar abilene_network.node[7].content_store 	decision_no[7] 	0
scalar abilene_network.node[7].content_store 	decision_ratio[7] 	0
scalar abilene_network.node[8].core_layer 	interests[8] 	0
scalar abilene_network.node[8].core_layer 	data[8] 	0
scalar abilene_network.node[8].content_store 	p_hit[8] 	-nan
scalar abilene_network.node[8].content_store 	hits[8] 	0
scalar abilene_network.node[8].content_store 	misses[8] 	0
scalar abilene_network.node[8].content_store 	decision_yes[8] 	0
scalar abilene_network.node[8].content_store 	decision_no[8] 	0
scalar abilene_network.node[8].content_store 	decision_ratio[8] 	0
scalar abilene_network.node[9].core_layer 	interests[9] 	0
scalar abilene_network.node[9].core_layer 	data[9] 	0
scalar abilene_network.node[9].content_store 	p_hit[9] 	-nan
scalar abilene_network.node[9].content_store 	hits[9] 	0
scalar abilene_network.node[9].content_store 	misses[9] 	0
scalar abilene_network.node[9].content_store 	decision_yes[9] 	0
scalar abilene_network.node[9].content_store 	decision_no[9] 	0
scalar abilene_network.node[9].content_store 	decision_ratio[9] 	0
scalar abilene_network.node[10].core_layer 	interests[10] 	0
scalar abilene_network.node[10].core_layer 	data[10] 	0
scalar abilene_network.node[10].content_store 	p_hit[10] 	-nan
scalar abilene_network.node[10].content_store 	hits[10] 	0
scalar abilene_network.node[10].content_store 	misses[10] 	0
scalar abilene_network.node[10].content_store 	decision_yes[10] 	0
scalar abilene_network.node[10].content_store 	decision_no[10] 	0
scalar abilene_network.node[10].content_store 	decision_ratio[10] 	0
scalar abilene_network.client[0] 	hdistance[0] 	0
scalar abilene_network.client[0] 	downloads[0] 	1737
scalar abilene_network.client[0] 	avg_time[0] 	0
scalar abilene_network.client[0] 	interests_sent[0] 	1737
scalar abilene_network.client[3] 	hdistance[3] 	0
scalar abilene_network.client[3] 	downloads[3] 	1807
scalar abilene_network.client[3] 	avg_time[3] 	0
scalar abilene_network.client[3] 	interests_sent[3] 	1807
scalar abilene_network.client[7] 	hdistance[7] 	0
scalar abilene_network.client[7] 	downloads[7] 	1835
scalar abilene_network.client[7] 	avg_time[7] 	0
scalar abilene_network.client[7] 	interests_sent[7] 	1835
