version 2
run General-746-20140511-17:33:10-21982
attr D costprobprodcorr0.01
attr F nrr
attr R lru
attr a 0.8
attr configname General
attr csize 1e3
attr ctlg 1e5
attr datetime 20140511-17:33:10
attr experiment General
attr inifile omnetpp.ini
attr iterationvars "$net=one_cache_scenario_3_links, $rep=6, $priceratiovalue=2, $weights=0.333_0.333_0.334, $a=0.8, $ctlg=1e5, $F=nrr, $ttl=1000, $D=costprobprodcorr0.01, $xi=4, $R=lru, $csize=1e3"
attr iterationvars2 "$net=one_cache_scenario_3_links, $rep=6, $priceratiovalue=2, $weights=0.333_0.333_0.334, $a=0.8, $ctlg=1e5, $F=nrr, $ttl=1000, $D=costprobprodcorr0.01, $xi=4, $R=lru, $csize=1e3, $repetition=0"
attr measurement "$net=one_cache_scenario_3_links, $rep=6, $priceratiovalue=2, $weights=0.333_0.333_0.334, $a=0.8, $ctlg=1e5, $F=nrr, $ttl=1000, $D=costprobprodcorr0.01, $xi=4, $R=lru, $csize=1e3"
attr net one_cache_scenario_3_links
attr network networks.${net=one_cache_scenario_3_links}_network
attr priceratiovalue 2
attr processid 21982
attr rep 6
attr repetition 0
attr replication #0
attr resultdir results
attr runnumber 746
attr seedset 6
attr ttl 1000
attr weights 0.333_0.333_0.334
attr xi 4

scalar . 	a 	0.8
scalar . 	csize 	1e3
scalar . 	ctlg 	1e5
scalar . 	priceratiovalue 	2
scalar . 	rep 	6
scalar . 	ttl 	1000
scalar . 	xi 	4
scalar one_cache_scenario_3_links_network.content_distribution 	repo-0 	4
scalar one_cache_scenario_3_links_network.content_distribution 	repo-1 	5
scalar one_cache_scenario_3_links_network.content_distribution 	repo-2 	6
scalar one_cache_scenario_3_links_network.content_distribution 	client-0 	0
scalar one_cache_scenario_3_links_network.content_distribution 	repo-0_card 	33436
scalar one_cache_scenario_3_links_network.content_distribution 	repo-1_card 	33143
scalar one_cache_scenario_3_links_network.content_distribution 	repo-2_card 	33421
scalar one_cache_scenario_3_links_network.statistics 	p_hit 	0.052745660303211
scalar one_cache_scenario_3_links_network.statistics 	interests 	69795.857142857
scalar one_cache_scenario_3_links_network.statistics 	data 	44076.285714286
scalar one_cache_scenario_3_links_network.statistics 	hdistance 	1.7137255119781
scalar one_cache_scenario_3_links_network.statistics 	avg_time 	0
scalar one_cache_scenario_3_links_network.statistics 	downloads 	180037
scalar one_cache_scenario_3_links_network.statistics 	total_cost 	130093
scalar one_cache_scenario_3_links_network.statistics 	total_replicas 	100000
scalar one_cache_scenario_3_links_network.statistics 	interests_sent 	180037
scalar one_cache_scenario_3_links_network.node[0].core_layer 	interests[0] 	180037
scalar one_cache_scenario_3_links_network.node[0].core_layer 	data[0] 	154267
scalar one_cache_scenario_3_links_network.node[0].core_layer 	repo_int[0] 	154267
scalar one_cache_scenario_3_links_network.node[0].content_store 	p_hit[0] 	0.14313724401095
scalar one_cache_scenario_3_links_network.node[0].content_store 	hits[0] 	25770
scalar one_cache_scenario_3_links_network.node[0].content_store 	misses[0] 	154267
scalar one_cache_scenario_3_links_network.node[0].content_store 	decision_yes[0] 	1189
scalar one_cache_scenario_3_links_network.node[0].content_store 	decision_no[0] 	153078
scalar one_cache_scenario_3_links_network.node[0].content_store 	decision_ratio[0] 	0.0077074163625403
scalar one_cache_scenario_3_links_network.node[0].content_store 	correction_factor[0] 	0.0017614937466972
scalar one_cache_scenario_3_links_network.node[0].content_store 	xi[0] 	4
scalar one_cache_scenario_3_links_network.node[1].core_layer 	interests[1] 	63345
scalar one_cache_scenario_3_links_network.node[1].core_layer 	data[1] 	63345
scalar one_cache_scenario_3_links_network.node[1].content_store 	p_hit[1] 	0
scalar one_cache_scenario_3_links_network.node[1].content_store 	hits[1] 	0
scalar one_cache_scenario_3_links_network.node[1].content_store 	misses[1] 	63345
scalar one_cache_scenario_3_links_network.node[1].content_store 	decision_yes[1] 	0
scalar one_cache_scenario_3_links_network.node[1].content_store 	decision_no[1] 	63345
scalar one_cache_scenario_3_links_network.node[1].content_store 	decision_ratio[1] 	0
scalar one_cache_scenario_3_links_network.node[2].core_layer 	interests[2] 	51751
scalar one_cache_scenario_3_links_network.node[2].core_layer 	data[2] 	51751
scalar one_cache_scenario_3_links_network.node[2].content_store 	p_hit[2] 	0
scalar one_cache_scenario_3_links_network.node[2].content_store 	hits[2] 	0
scalar one_cache_scenario_3_links_network.node[2].content_store 	misses[2] 	51751
scalar one_cache_scenario_3_links_network.node[2].content_store 	decision_yes[2] 	0
scalar one_cache_scenario_3_links_network.node[2].content_store 	decision_no[2] 	51751
scalar one_cache_scenario_3_links_network.node[2].content_store 	decision_ratio[2] 	0
scalar one_cache_scenario_3_links_network.node[3].core_layer 	interests[3] 	39171
scalar one_cache_scenario_3_links_network.node[3].core_layer 	data[3] 	39171
scalar one_cache_scenario_3_links_network.node[3].content_store 	p_hit[3] 	0
scalar one_cache_scenario_3_links_network.node[3].content_store 	hits[3] 	0
scalar one_cache_scenario_3_links_network.node[3].content_store 	misses[3] 	39171
scalar one_cache_scenario_3_links_network.node[3].content_store 	decision_yes[3] 	0
scalar one_cache_scenario_3_links_network.node[3].content_store 	decision_no[3] 	39171
scalar one_cache_scenario_3_links_network.node[3].content_store 	decision_ratio[3] 	0
scalar one_cache_scenario_3_links_network.node[4].core_layer 	interests[4] 	63345
scalar one_cache_scenario_3_links_network.node[4].core_layer 	repo_load[4] 	63345
scalar one_cache_scenario_3_links_network.node[4].core_layer 	data[4] 	0
scalar one_cache_scenario_3_links_network.node[4].content_store 	p_hit[4] 	0
scalar one_cache_scenario_3_links_network.node[4].content_store 	hits[4] 	0
scalar one_cache_scenario_3_links_network.node[4].content_store 	misses[4] 	63345
scalar one_cache_scenario_3_links_network.node[4].content_store 	decision_yes[4] 	0
scalar one_cache_scenario_3_links_network.node[4].content_store 	decision_no[4] 	63345
scalar one_cache_scenario_3_links_network.node[4].content_store 	decision_ratio[4] 	0
scalar one_cache_scenario_3_links_network.node[5].core_layer 	interests[5] 	51751
scalar one_cache_scenario_3_links_network.node[5].core_layer 	repo_load[5] 	51751
scalar one_cache_scenario_3_links_network.node[5].core_layer 	data[5] 	0
scalar one_cache_scenario_3_links_network.node[5].content_store 	p_hit[5] 	0
scalar one_cache_scenario_3_links_network.node[5].content_store 	hits[5] 	0
scalar one_cache_scenario_3_links_network.node[5].content_store 	misses[5] 	51751
scalar one_cache_scenario_3_links_network.node[5].content_store 	decision_yes[5] 	0
scalar one_cache_scenario_3_links_network.node[5].content_store 	decision_no[5] 	51751
scalar one_cache_scenario_3_links_network.node[5].content_store 	decision_ratio[5] 	0
scalar one_cache_scenario_3_links_network.node[6].core_layer 	interests[6] 	39171
scalar one_cache_scenario_3_links_network.node[6].core_layer 	repo_load[6] 	39171
scalar one_cache_scenario_3_links_network.node[6].core_layer 	data[6] 	0
scalar one_cache_scenario_3_links_network.node[6].content_store 	p_hit[6] 	0
scalar one_cache_scenario_3_links_network.node[6].content_store 	hits[6] 	0
scalar one_cache_scenario_3_links_network.node[6].content_store 	misses[6] 	39171
scalar one_cache_scenario_3_links_network.node[6].content_store 	decision_yes[6] 	0
scalar one_cache_scenario_3_links_network.node[6].content_store 	decision_no[6] 	39171
scalar one_cache_scenario_3_links_network.node[6].content_store 	decision_ratio[6] 	0
scalar one_cache_scenario_3_links_network.client[0] 	hdistance[0] 	1.7137255119781
scalar one_cache_scenario_3_links_network.client[0] 	downloads[0] 	180037
scalar one_cache_scenario_3_links_network.client[0] 	avg_time[0] 	0
scalar one_cache_scenario_3_links_network.client[0] 	interests_sent[0] 	180037
