version 2
run General-1562-20140421-20:37:23-16326
attr D prob_cache
attr F nrr
attr R lru
attr a 0.8
attr configname General
attr csize 10
attr ctlg 10^3
attr datetime 20140421-20:37:23
attr experiment General
attr inifile omnetpp.ini
attr iterationvars "$net=simple_scenario, $rep=32, $priceratiovalue=1, $a=0.8, $ctlg=10^3, $F=nrr, $ttl=1000, $D=prob_cache, $R=lru, $csize=10"
attr iterationvars2 "$net=simple_scenario, $rep=32, $priceratiovalue=1, $a=0.8, $ctlg=10^3, $F=nrr, $ttl=1000, $D=prob_cache, $R=lru, $csize=10, $repetition=0"
attr measurement "$net=simple_scenario, $rep=32, $priceratiovalue=1, $a=0.8, $ctlg=10^3, $F=nrr, $ttl=1000, $D=prob_cache, $R=lru, $csize=10"
attr net simple_scenario
attr network networks.${net=simple_scenario}_network
attr priceratiovalue 1
attr processid 16326
attr rep 32
attr repetition 0
attr replication #0
attr resultdir results
attr runnumber 1562
attr seedset 32
attr ttl 1000

scalar . 	a 	0.8
scalar . 	csize 	10
scalar . 	priceratiovalue 	1
scalar . 	rep 	32
scalar . 	ttl 	1000
scalar simple_scenario_network.content_distribution 	repo-0 	3
scalar simple_scenario_network.content_distribution 	repo-1 	4
scalar simple_scenario_network.content_distribution 	client-0 	0
scalar simple_scenario_network.content_distribution 	repo-0_card 	518
scalar simple_scenario_network.content_distribution 	repo-1_card 	482
scalar simple_scenario_network.statistics 	p_hit 	0.07921361833914
scalar simple_scenario_network.statistics 	interests 	95577
scalar simple_scenario_network.statistics 	data 	59588.8
scalar simple_scenario_network.statistics 	hdistance 	2.4454126630395
scalar simple_scenario_network.statistics 	avg_time 	0.001998025677
scalar simple_scenario_network.statistics 	downloads 	179941
scalar simple_scenario_network.statistics 	total_cost 	71042
scalar simple_scenario_network.node[0].core_layer 	interests[0] 	179941
scalar simple_scenario_network.node[0].core_layer 	data[0] 	155858
scalar simple_scenario_network.node[0].core_layer 	repo_int[0] 	142086
scalar simple_scenario_network.node[0].content_store 	p_hit[0] 	0.13383831366948
scalar simple_scenario_network.node[0].content_store 	hits[0] 	24083
scalar simple_scenario_network.node[0].content_store 	misses[0] 	155858
scalar simple_scenario_network.node[1].core_layer 	interests[1] 	80647
scalar simple_scenario_network.node[1].core_layer 	data[1] 	73899
scalar simple_scenario_network.node[1].content_store 	p_hit[1] 	0.083673292248937
scalar simple_scenario_network.node[1].content_store 	hits[1] 	6748
scalar simple_scenario_network.node[1].content_store 	misses[1] 	73899
scalar simple_scenario_network.node[2].core_layer 	interests[2] 	75211
scalar simple_scenario_network.node[2].core_layer 	data[2] 	68187
scalar simple_scenario_network.node[2].content_store 	p_hit[2] 	0.093390594460917
scalar simple_scenario_network.node[2].content_store 	hits[2] 	7024
scalar simple_scenario_network.node[2].content_store 	misses[2] 	68187
scalar simple_scenario_network.node[3].core_layer 	interests[3] 	73899
scalar simple_scenario_network.node[3].core_layer 	repo_load[3] 	73899
scalar simple_scenario_network.node[3].core_layer 	data[3] 	0
scalar simple_scenario_network.node[3].content_store 	p_hit[3] 	0
scalar simple_scenario_network.node[3].content_store 	hits[3] 	0
scalar simple_scenario_network.node[3].content_store 	misses[3] 	73899
scalar simple_scenario_network.node[4].core_layer 	interests[4] 	68187
scalar simple_scenario_network.node[4].core_layer 	repo_load[4] 	68187
scalar simple_scenario_network.node[4].core_layer 	data[4] 	0
scalar simple_scenario_network.node[4].content_store 	p_hit[4] 	0
scalar simple_scenario_network.node[4].content_store 	hits[4] 	0
scalar simple_scenario_network.node[4].content_store 	misses[4] 	68187
scalar simple_scenario_network.client[0] 	hdistance[0] 	2.4454126630395
scalar simple_scenario_network.client[0] 	downloads[0] 	179941
scalar simple_scenario_network.client[0] 	avg_time[0] 	0.001998025677
