version 2
run General-601-20140502-13:53:35-16317
attr D fix0.1
attr F nrr
attr R lru
attr a 1.2
attr configname General
attr csize 1e3
attr ctlg 1e5
attr datetime 20140502-13:53:35
attr experiment General
attr inifile omnetpp.ini
attr iterationvars "$net=three_caches_scenario_3_links, $rep=5, $priceratiovalue=1, $weights=0.333_0.333_0.334, $a=1.2, $ctlg=1e5, $F=nrr, $ttl=1000, $D=fix0.1, $xi=1, $R=lru, $csize=1e3"
attr iterationvars2 "$net=three_caches_scenario_3_links, $rep=5, $priceratiovalue=1, $weights=0.333_0.333_0.334, $a=1.2, $ctlg=1e5, $F=nrr, $ttl=1000, $D=fix0.1, $xi=1, $R=lru, $csize=1e3, $repetition=0"
attr measurement "$net=three_caches_scenario_3_links, $rep=5, $priceratiovalue=1, $weights=0.333_0.333_0.334, $a=1.2, $ctlg=1e5, $F=nrr, $ttl=1000, $D=fix0.1, $xi=1, $R=lru, $csize=1e3"
attr net three_caches_scenario_3_links
attr network networks.${net=three_caches_scenario_3_links}_network
attr priceratiovalue 1
attr processid 16317
attr rep 5
attr repetition 0
attr replication #0
attr resultdir results
attr runnumber 601
attr seedset 5
attr ttl 1000
attr weights 0.333_0.333_0.334
attr xi 1

scalar . 	a 	1.2
scalar . 	csize 	1e3
scalar . 	ctlg 	1e5
scalar . 	priceratiovalue 	1
scalar . 	rep 	5
scalar . 	ttl 	1000
scalar . 	xi 	1
scalar three_caches_scenario_3_links_network.content_distribution 	repo-0 	4
scalar three_caches_scenario_3_links_network.content_distribution 	repo-1 	5
scalar three_caches_scenario_3_links_network.content_distribution 	repo-2 	6
scalar three_caches_scenario_3_links_network.content_distribution 	client-0 	0
scalar three_caches_scenario_3_links_network.content_distribution 	repo-0_card 	33274
scalar three_caches_scenario_3_links_network.content_distribution 	repo-1_card 	33323
scalar three_caches_scenario_3_links_network.content_distribution 	repo-2_card 	33403
scalar three_caches_scenario_3_links_network.statistics 	p_hit 	0.55372730162743
scalar three_caches_scenario_3_links_network.statistics 	interests 	37298.142857143
scalar three_caches_scenario_3_links_network.statistics 	data 	11484.714285714
scalar three_caches_scenario_3_links_network.statistics 	hdistance 	0.56328931785227
scalar three_caches_scenario_3_links_network.statistics 	avg_time 	0
scalar three_caches_scenario_3_links_network.statistics 	downloads 	180694
scalar three_caches_scenario_3_links_network.statistics 	total_cost 	21390
scalar three_caches_scenario_3_links_network.statistics 	total_replicas 	100000
scalar three_caches_scenario_3_links_network.statistics 	interests_sent 	180694
scalar three_caches_scenario_3_links_network.node[0].core_layer 	interests[0] 	180694
scalar three_caches_scenario_3_links_network.node[0].core_layer 	data[0] 	44270
scalar three_caches_scenario_3_links_network.node[0].core_layer 	repo_int[0] 	36123
scalar three_caches_scenario_3_links_network.node[0].content_store 	p_hit[0] 	0.75500016602654
scalar three_caches_scenario_3_links_network.node[0].content_store 	hits[0] 	136424
scalar three_caches_scenario_3_links_network.node[0].content_store 	misses[0] 	44270
scalar three_caches_scenario_3_links_network.node[0].content_store 	decision_yes[0] 	4337
scalar three_caches_scenario_3_links_network.node[0].content_store 	decision_no[0] 	39933
scalar three_caches_scenario_3_links_network.node[1].core_layer 	interests[1] 	14733
scalar three_caches_scenario_3_links_network.node[1].core_layer 	data[1] 	14733
scalar three_caches_scenario_3_links_network.node[1].content_store 	p_hit[1] 	0
scalar three_caches_scenario_3_links_network.node[1].content_store 	hits[1] 	0
scalar three_caches_scenario_3_links_network.node[1].content_store 	misses[1] 	14733
scalar three_caches_scenario_3_links_network.node[1].content_store 	decision_yes[1] 	0
scalar three_caches_scenario_3_links_network.node[1].content_store 	decision_no[1] 	14733
scalar three_caches_scenario_3_links_network.node[2].core_layer 	interests[2] 	14763
scalar three_caches_scenario_3_links_network.node[2].core_layer 	data[2] 	10780
scalar three_caches_scenario_3_links_network.node[2].content_store 	p_hit[2] 	0.26979611190138
scalar three_caches_scenario_3_links_network.node[2].content_store 	hits[2] 	3983
scalar three_caches_scenario_3_links_network.node[2].content_store 	misses[2] 	10780
scalar three_caches_scenario_3_links_network.node[2].content_store 	decision_yes[2] 	1163
scalar three_caches_scenario_3_links_network.node[2].content_store 	decision_no[2] 	9617
scalar three_caches_scenario_3_links_network.node[3].core_layer 	interests[3] 	14774
scalar three_caches_scenario_3_links_network.node[3].core_layer 	data[3] 	10610
scalar three_caches_scenario_3_links_network.node[3].content_store 	p_hit[3] 	0.28184648707188
scalar three_caches_scenario_3_links_network.node[3].content_store 	hits[3] 	4164
scalar three_caches_scenario_3_links_network.node[3].content_store 	misses[3] 	10610
scalar three_caches_scenario_3_links_network.node[3].content_store 	decision_yes[3] 	1086
scalar three_caches_scenario_3_links_network.node[3].content_store 	decision_no[3] 	9524
scalar three_caches_scenario_3_links_network.node[4].core_layer 	interests[4] 	14733
scalar three_caches_scenario_3_links_network.node[4].core_layer 	repo_load[4] 	14733
scalar three_caches_scenario_3_links_network.node[4].core_layer 	data[4] 	0
scalar three_caches_scenario_3_links_network.node[4].content_store 	p_hit[4] 	0
scalar three_caches_scenario_3_links_network.node[4].content_store 	hits[4] 	0
scalar three_caches_scenario_3_links_network.node[4].content_store 	misses[4] 	14733
scalar three_caches_scenario_3_links_network.node[4].content_store 	decision_yes[4] 	0
scalar three_caches_scenario_3_links_network.node[4].content_store 	decision_no[4] 	14733
scalar three_caches_scenario_3_links_network.node[5].core_layer 	interests[5] 	10780
scalar three_caches_scenario_3_links_network.node[5].core_layer 	repo_load[5] 	10780
scalar three_caches_scenario_3_links_network.node[5].core_layer 	data[5] 	0
scalar three_caches_scenario_3_links_network.node[5].content_store 	p_hit[5] 	0
scalar three_caches_scenario_3_links_network.node[5].content_store 	hits[5] 	0
scalar three_caches_scenario_3_links_network.node[5].content_store 	misses[5] 	10780
scalar three_caches_scenario_3_links_network.node[5].content_store 	decision_yes[5] 	0
scalar three_caches_scenario_3_links_network.node[5].content_store 	decision_no[5] 	10780
scalar three_caches_scenario_3_links_network.node[6].core_layer 	interests[6] 	10610
scalar three_caches_scenario_3_links_network.node[6].core_layer 	repo_load[6] 	10610
scalar three_caches_scenario_3_links_network.node[6].core_layer 	data[6] 	0
scalar three_caches_scenario_3_links_network.node[6].content_store 	p_hit[6] 	0
scalar three_caches_scenario_3_links_network.node[6].content_store 	hits[6] 	0
scalar three_caches_scenario_3_links_network.node[6].content_store 	misses[6] 	10610
scalar three_caches_scenario_3_links_network.node[6].content_store 	decision_yes[6] 	0
scalar three_caches_scenario_3_links_network.node[6].content_store 	decision_no[6] 	10610
scalar three_caches_scenario_3_links_network.client[0] 	hdistance[0] 	0.56328931785227
scalar three_caches_scenario_3_links_network.client[0] 	downloads[0] 	180694
scalar three_caches_scenario_3_links_network.client[0] 	avg_time[0] 	0
scalar three_caches_scenario_3_links_network.client[0] 	interests_sent[0] 	180694
