version 2
run General-31-20140424-12:07:19-12554
attr D fix0.01
attr F nrr
attr R lru
attr a 0.8
attr configname General
attr csize 10
attr ctlg 10^3
attr datetime 20140424-12:07:19
attr experiment General
attr inifile omnetpp.ini
attr iterationvars "$net=simple_scenario, $rep=1, $priceratiovalue=2, $a=0.8, $ctlg=10^3, $F=nrr, $ttl=1000, $D=fix0.01, $R=lru, $csize=10"
attr iterationvars2 "$net=simple_scenario, $rep=1, $priceratiovalue=2, $a=0.8, $ctlg=10^3, $F=nrr, $ttl=1000, $D=fix0.01, $R=lru, $csize=10, $repetition=0"
attr measurement "$net=simple_scenario, $rep=1, $priceratiovalue=2, $a=0.8, $ctlg=10^3, $F=nrr, $ttl=1000, $D=fix0.01, $R=lru, $csize=10"
attr net simple_scenario
attr network networks.${net=simple_scenario}_network
attr priceratiovalue 2
attr processid 12554
attr rep 1
attr repetition 0
attr replication #0
attr resultdir results
attr runnumber 31
attr seedset 1
attr ttl 1000

scalar . 	a 	0.8
scalar . 	csize 	10
scalar . 	priceratiovalue 	2
scalar . 	rep 	1
scalar . 	ttl 	1000
scalar simple_scenario_network.content_distribution 	repo-0 	3
scalar simple_scenario_network.content_distribution 	repo-1 	4
scalar simple_scenario_network.content_distribution 	client-0 	0
scalar simple_scenario_network.content_distribution 	repo-0_card 	522
scalar simple_scenario_network.content_distribution 	repo-1_card 	478
scalar simple_scenario_network.statistics 	p_hit 	0.10666028624875
scalar simple_scenario_network.statistics 	interests 	91948
scalar simple_scenario_network.statistics 	data 	55878
scalar simple_scenario_network.statistics 	hdistance 	2.2772608816191
scalar simple_scenario_network.statistics 	avg_time 	0.001998222662
scalar simple_scenario_network.statistics 	downloads 	180350
scalar simple_scenario_network.statistics 	total_cost 	65516
scalar simple_scenario_network.node[0].core_layer 	interests[0] 	180350
scalar simple_scenario_network.node[0].core_layer 	data[0] 	148076
scalar simple_scenario_network.node[0].core_layer 	repo_int[0] 	131314
scalar simple_scenario_network.node[0].content_store 	p_hit[0] 	0.17895203770446
scalar simple_scenario_network.node[0].content_store 	hits[0] 	32274
scalar simple_scenario_network.node[0].content_store 	misses[0] 	148076
scalar simple_scenario_network.node[1].core_layer 	interests[1] 	73347
scalar simple_scenario_network.node[1].core_layer 	data[1] 	66079
scalar simple_scenario_network.node[1].content_store 	p_hit[1] 	0.099090624020069
scalar simple_scenario_network.node[1].content_store 	hits[1] 	7268
scalar simple_scenario_network.node[1].content_store 	misses[1] 	66079
scalar simple_scenario_network.node[2].core_layer 	interests[2] 	74729
scalar simple_scenario_network.node[2].core_layer 	data[2] 	65235
scalar simple_scenario_network.node[2].content_store 	p_hit[2] 	0.12704572522046
scalar simple_scenario_network.node[2].content_store 	hits[2] 	9494
scalar simple_scenario_network.node[2].content_store 	misses[2] 	65235
scalar simple_scenario_network.node[3].core_layer 	interests[3] 	66079
scalar simple_scenario_network.node[3].core_layer 	repo_load[3] 	66079
scalar simple_scenario_network.node[3].core_layer 	data[3] 	0
scalar simple_scenario_network.node[3].content_store 	p_hit[3] 	0
scalar simple_scenario_network.node[3].content_store 	hits[3] 	0
scalar simple_scenario_network.node[3].content_store 	misses[3] 	66079
scalar simple_scenario_network.node[4].core_layer 	interests[4] 	65235
scalar simple_scenario_network.node[4].core_layer 	repo_load[4] 	65235
scalar simple_scenario_network.node[4].core_layer 	data[4] 	0
scalar simple_scenario_network.node[4].content_store 	p_hit[4] 	0
scalar simple_scenario_network.node[4].content_store 	hits[4] 	0
scalar simple_scenario_network.node[4].content_store 	misses[4] 	65235
scalar simple_scenario_network.client[0] 	hdistance[0] 	2.2772608816191
scalar simple_scenario_network.client[0] 	downloads[0] 	180350
scalar simple_scenario_network.client[0] 	avg_time[0] 	0.001998222662
