version 2
run General-129-20140421-20:04:20-14780
attr D fix0.01
attr F nrr
attr R lru
attr a 0.8
attr configname General
attr csize 10
attr ctlg 10^3
attr datetime 20140421-20:04:20
attr experiment General
attr inifile omnetpp.ini
attr iterationvars "$net=simple_scenario, $rep=8, $priceratiovalue=2, $a=0.8, $ctlg=10^3, $F=nrr, $ttl=1000, $D=fix0.01, $R=lru, $csize=10"
attr iterationvars2 "$net=simple_scenario, $rep=8, $priceratiovalue=2, $a=0.8, $ctlg=10^3, $F=nrr, $ttl=1000, $D=fix0.01, $R=lru, $csize=10, $repetition=0"
attr measurement "$net=simple_scenario, $rep=8, $priceratiovalue=2, $a=0.8, $ctlg=10^3, $F=nrr, $ttl=1000, $D=fix0.01, $R=lru, $csize=10"
attr net simple_scenario
attr network networks.${net=simple_scenario}_network
attr priceratiovalue 2
attr processid 14780
attr rep 8
attr repetition 0
attr replication #0
attr resultdir results
attr runnumber 129
attr seedset 8
attr ttl 1000

scalar . 	a 	0.8
scalar . 	csize 	10
scalar . 	priceratiovalue 	2
scalar . 	rep 	8
scalar . 	ttl 	1000
scalar simple_scenario_network.content_distribution 	repo-0 	3
scalar simple_scenario_network.content_distribution 	repo-1 	4
scalar simple_scenario_network.content_distribution 	client-0 	0
scalar simple_scenario_network.content_distribution 	repo-0_card 	485
scalar simple_scenario_network.content_distribution 	repo-1_card 	515
scalar simple_scenario_network.statistics 	p_hit 	0.10595038117212
scalar simple_scenario_network.statistics 	interests 	91795.8
scalar simple_scenario_network.statistics 	data 	55880
scalar simple_scenario_network.statistics 	hdistance 	2.2850667394295
scalar simple_scenario_network.statistics 	avg_time 	0.001997804514
scalar simple_scenario_network.statistics 	downloads 	179579
scalar simple_scenario_network.statistics 	total_cost 	66536
scalar simple_scenario_network.node[0].core_layer 	interests[0] 	179579
scalar simple_scenario_network.node[0].core_layer 	data[0] 	148450
scalar simple_scenario_network.node[0].core_layer 	repo_int[0] 	130950
scalar simple_scenario_network.node[0].content_store 	p_hit[0] 	0.17334432199756
scalar simple_scenario_network.node[0].content_store 	hits[0] 	31129
scalar simple_scenario_network.node[0].content_store 	misses[0] 	148450
scalar simple_scenario_network.node[1].core_layer 	interests[1] 	70179
scalar simple_scenario_network.node[1].core_layer 	data[1] 	62292
scalar simple_scenario_network.node[1].content_store 	p_hit[1] 	0.11238404650964
scalar simple_scenario_network.node[1].content_store 	hits[1] 	7887
scalar simple_scenario_network.node[1].content_store 	misses[1] 	62292
scalar simple_scenario_network.node[2].core_layer 	interests[2] 	78271
scalar simple_scenario_network.node[2].core_layer 	data[2] 	68658
scalar simple_scenario_network.node[2].content_store 	p_hit[2] 	0.122816879815
scalar simple_scenario_network.node[2].content_store 	hits[2] 	9613
scalar simple_scenario_network.node[2].content_store 	misses[2] 	68658
scalar simple_scenario_network.node[3].core_layer 	interests[3] 	62292
scalar simple_scenario_network.node[3].core_layer 	repo_load[3] 	62292
scalar simple_scenario_network.node[3].core_layer 	data[3] 	0
scalar simple_scenario_network.node[3].content_store 	p_hit[3] 	0
scalar simple_scenario_network.node[3].content_store 	hits[3] 	0
scalar simple_scenario_network.node[3].content_store 	misses[3] 	62292
scalar simple_scenario_network.node[4].core_layer 	interests[4] 	68658
scalar simple_scenario_network.node[4].core_layer 	repo_load[4] 	68658
scalar simple_scenario_network.node[4].core_layer 	data[4] 	0
scalar simple_scenario_network.node[4].content_store 	p_hit[4] 	0
scalar simple_scenario_network.node[4].content_store 	hits[4] 	0
scalar simple_scenario_network.node[4].content_store 	misses[4] 	68658
scalar simple_scenario_network.client[0] 	hdistance[0] 	2.2850667394295
scalar simple_scenario_network.client[0] 	downloads[0] 	179579
scalar simple_scenario_network.client[0] 	avg_time[0] 	0.001997804514
