version 2
run General-1-20140626-15:49:51-10436
attr D costprobcoincorr0.5
attr F nrr
attr R lru
attr a 1
attr configname General
attr csize 1e3
attr ctlg 1e5
attr datetime 20140626-15:49:51
attr experiment General
attr inifile omnetpp.ini
attr iterationvars "$net=abilene_cost, $rep=1, $priceratiovalue=10, $weights=0.333_0.333_0.334, $lambda=100, $a=1, $ctlg=1e5, $F=nrr, $ttl=1000, $D=costprobcoincorr0.5, $xi=1, $R=lru, $csize=1e3, $pricebits=0, $mytime=1800"
attr iterationvars2 "$net=abilene_cost, $rep=1, $priceratiovalue=10, $weights=0.333_0.333_0.334, $lambda=100, $a=1, $ctlg=1e5, $F=nrr, $ttl=1000, $D=costprobcoincorr0.5, $xi=1, $R=lru, $csize=1e3, $pricebits=0, $mytime=1800, $repetition=0"
attr lambda 100
attr measurement "$net=abilene_cost, $rep=1, $priceratiovalue=10, $weights=0.333_0.333_0.334, $lambda=100, $a=1, $ctlg=1e5, $F=nrr, $ttl=1000, $D=costprobcoincorr0.5, $xi=1, $R=lru, $csize=1e3, $pricebits=0, $mytime=1800"
attr mytime 1800
attr net abilene_cost
attr network networks.${net=abilene_cost}_network
attr pricebits 0
attr priceratiovalue 10
attr processid 10436
attr rep 1
attr repetition 0
attr replication #0
attr resultdir results
attr runnumber 1
attr seedset 1
attr ttl 1000
attr weights 0.333_0.333_0.334
attr xi 1

scalar . 	a 	1
scalar . 	csize 	1e3
scalar . 	ctlg 	1e5
scalar . 	lambda 	100
scalar . 	mytime 	1800
scalar . 	pricebits 	0
scalar . 	priceratiovalue 	10
scalar . 	rep 	1
scalar . 	ttl 	1000
scalar . 	xi 	1
scalar abilene_cost_network.content_distribution 	repo-0 	11
scalar abilene_cost_network.content_distribution 	repo-1 	12
scalar abilene_cost_network.content_distribution 	repo-2 	13
scalar abilene_cost_network.content_distribution 	client-0 	5
scalar abilene_cost_network.content_distribution 	client-1 	0
scalar abilene_cost_network.content_distribution 	client-2 	9
scalar abilene_cost_network.content_distribution 	repo-0_card 	33396
scalar abilene_cost_network.content_distribution 	repo-1_card 	33039
scalar abilene_cost_network.content_distribution 	repo-2_card 	33565
scalar abilene_cost_network.statistics 	repo_popularity[0] 	0.28686251265602
scalar abilene_cost_network.statistics 	repo_popularity[1] 	0.2886063426465
scalar abilene_cost_network.statistics 	repo_popularity[2] 	0.42453114469748
scalar abilene_cost_network.statistics 	stabilization_time 	68.1
scalar abilene_cost_network.node[1].face$o[4].channel 	price[1] 	0
scalar abilene_cost_network.node[1].face$o[4].channel 	represented_price[1] 	0
scalar abilene_cost_network.node[7].face$o[4].channel 	price[7] 	0
scalar abilene_cost_network.node[7].face$o[4].channel 	represented_price[7] 	0
scalar abilene_cost_network.node[10].face$o[4].channel 	price[10] 	0
scalar abilene_cost_network.node[10].face$o[4].channel 	represented_price[10] 	0
scalar abilene_cost_network.node[11].face$o[1].channel 	price[11] 	0
scalar abilene_cost_network.node[11].face$o[1].channel 	represented_price[11] 	0
scalar abilene_cost_network.node[12].face$o[1].channel 	price[12] 	1
scalar abilene_cost_network.node[12].face$o[1].channel 	represented_price[12] 	1
scalar abilene_cost_network.node[13].face$o[1].channel 	price[13] 	10
scalar abilene_cost_network.node[13].face$o[1].channel 	represented_price[13] 	10
scalar abilene_cost_network.statistics 	p_hit 	0.13914243278906
scalar abilene_cost_network.statistics 	interests 	123260.64285714
scalar abilene_cost_network.statistics 	data 	84703.357142857
scalar abilene_cost_network.statistics 	hdistance 	2.7527506998676
scalar abilene_cost_network.statistics 	avg_time 	0.010783243182
scalar abilene_cost_network.statistics 	downloads 	539417
scalar abilene_cost_network.statistics 	total_cost 	1117450
scalar abilene_cost_network.statistics 	total_replicas 	100000
scalar abilene_cost_network.statistics 	inner_hit 	0.44513799157238
scalar abilene_cost_network.statistics 	interests_sent 	539799
scalar abilene_cost_network.node[0].core_layer 	interests[0] 	184955
scalar abilene_cost_network.node[0].core_layer 	data[0] 	125924
scalar abilene_cost_network.node[0].core_layer 	repo_int[0] 	299302
scalar abilene_cost_network.node[0].content_store 	p_hit[0] 	0.31845043388932
scalar abilene_cost_network.node[0].content_store 	hits[0] 	58899
scalar abilene_cost_network.node[0].content_store 	misses[0] 	126056
scalar abilene_cost_network.node[0].content_store 	decision_yes[0] 	62546
scalar abilene_cost_network.node[0].content_store 	decision_no[0] 	63378
scalar abilene_cost_network.node[0].content_store 	decision_ratio[0] 	0.4966964200629
scalar abilene_cost_network.node[0].content_store 	correction_factor[0] 	0.13612850530901
scalar abilene_cost_network.node[0].content_store 	xi[0] 	1
scalar abilene_cost_network.node[1].core_layer 	interests[1] 	186688
scalar abilene_cost_network.node[1].core_layer 	data[1] 	181163
scalar abilene_cost_network.node[1].content_store 	p_hit[1] 	0.029589475488516
scalar abilene_cost_network.node[1].content_store 	hits[1] 	5524
scalar abilene_cost_network.node[1].content_store 	misses[1] 	181164
scalar abilene_cost_network.node[1].content_store 	decision_yes[1] 	90885
scalar abilene_cost_network.node[1].content_store 	decision_no[1] 	90260
scalar abilene_cost_network.node[1].content_store 	decision_ratio[1] 	0.50172513732093
scalar abilene_cost_network.node[1].content_store 	correction_factor[1] 	0.13612850530901
scalar abilene_cost_network.node[1].content_store 	xi[1] 	1
scalar abilene_cost_network.node[2].core_layer 	interests[2] 	117728
scalar abilene_cost_network.node[2].core_layer 	data[2] 	112670
scalar abilene_cost_network.node[2].content_store 	p_hit[2] 	0.042954946996466
scalar abilene_cost_network.node[2].content_store 	hits[2] 	5057
scalar abilene_cost_network.node[2].content_store 	misses[2] 	112671
scalar abilene_cost_network.node[2].content_store 	decision_yes[2] 	56710
scalar abilene_cost_network.node[2].content_store 	decision_no[2] 	55942
scalar abilene_cost_network.node[2].content_store 	decision_ratio[2] 	0.50340872776338
scalar abilene_cost_network.node[2].content_store 	correction_factor[2] 	0.13612850530901
scalar abilene_cost_network.node[2].content_store 	xi[2] 	1
scalar abilene_cost_network.node[3].core_layer 	interests[3] 	109442
scalar abilene_cost_network.node[3].core_layer 	data[3] 	106412
scalar abilene_cost_network.node[3].content_store 	p_hit[3] 	0.027676760293123
scalar abilene_cost_network.node[3].content_store 	hits[3] 	3029
scalar abilene_cost_network.node[3].content_store 	misses[3] 	106413
scalar abilene_cost_network.node[3].content_store 	decision_yes[3] 	53281
scalar abilene_cost_network.node[3].content_store 	decision_no[3] 	53124
scalar abilene_cost_network.node[3].content_store 	decision_ratio[3] 	0.50073774728631
scalar abilene_cost_network.node[3].content_store 	correction_factor[3] 	0.13612850530901
scalar abilene_cost_network.node[3].content_store 	xi[3] 	1
scalar abilene_cost_network.node[4].core_layer 	interests[4] 	77665
scalar abilene_cost_network.node[4].core_layer 	data[4] 	73699
scalar abilene_cost_network.node[4].content_store 	p_hit[4] 	0.051078349320801
scalar abilene_cost_network.node[4].content_store 	hits[4] 	3967
scalar abilene_cost_network.node[4].content_store 	misses[4] 	73698
scalar abilene_cost_network.node[4].content_store 	decision_yes[4] 	36667
scalar abilene_cost_network.node[4].content_store 	decision_no[4] 	37032
scalar abilene_cost_network.node[4].content_store 	decision_ratio[4] 	0.49752371131223
scalar abilene_cost_network.node[4].content_store 	correction_factor[4] 	0.13612850530901
scalar abilene_cost_network.node[4].content_store 	xi[4] 	1
scalar abilene_cost_network.node[5].core_layer 	interests[5] 	180654
scalar abilene_cost_network.node[5].core_layer 	data[5] 	126436
scalar abilene_cost_network.node[5].content_store 	p_hit[5] 	0.2993235688111
scalar abilene_cost_network.node[5].content_store 	hits[5] 	54074
scalar abilene_cost_network.node[5].content_store 	misses[5] 	126580
scalar abilene_cost_network.node[5].content_store 	decision_yes[5] 	63373
scalar abilene_cost_network.node[5].content_store 	decision_no[5] 	63063
scalar abilene_cost_network.node[5].content_store 	decision_ratio[5] 	0.5012259166693
scalar abilene_cost_network.node[5].content_store 	correction_factor[5] 	0.13612850530901
scalar abilene_cost_network.node[5].content_store 	xi[5] 	1
scalar abilene_cost_network.node[6].core_layer 	interests[6] 	54022
scalar abilene_cost_network.node[6].core_layer 	data[6] 	40160
scalar abilene_cost_network.node[6].content_store 	p_hit[6] 	0.25659916330384
scalar abilene_cost_network.node[6].content_store 	hits[6] 	13862
scalar abilene_cost_network.node[6].content_store 	misses[6] 	40160
scalar abilene_cost_network.node[6].content_store 	decision_yes[6] 	19957
scalar abilene_cost_network.node[6].content_store 	decision_no[6] 	20203
scalar abilene_cost_network.node[6].content_store 	decision_ratio[6] 	0.49693725099602
scalar abilene_cost_network.node[6].content_store 	correction_factor[6] 	0.13612850530901
scalar abilene_cost_network.node[6].content_store 	xi[6] 	1
scalar abilene_cost_network.node[7].core_layer 	interests[7] 	108563
scalar abilene_cost_network.node[7].core_layer 	data[7] 	103992
scalar abilene_cost_network.node[7].content_store 	p_hit[7] 	0.042067739469248
scalar abilene_cost_network.node[7].content_store 	hits[7] 	4567
scalar abilene_cost_network.node[7].content_store 	misses[7] 	103996
scalar abilene_cost_network.node[7].content_store 	decision_yes[7] 	51897
scalar abilene_cost_network.node[7].content_store 	decision_no[7] 	52080
scalar abilene_cost_network.node[7].content_store 	decision_ratio[7] 	0.4991199976918
scalar abilene_cost_network.node[7].content_store 	correction_factor[7] 	0.13612850530901
scalar abilene_cost_network.node[7].content_store 	xi[7] 	1
scalar abilene_cost_network.node[8].core_layer 	interests[8] 	59976
scalar abilene_cost_network.node[8].core_layer 	data[8] 	41156
scalar abilene_cost_network.node[8].content_store 	p_hit[8] 	0.31379218354008
scalar abilene_cost_network.node[8].content_store 	hits[8] 	18820
scalar abilene_cost_network.node[8].content_store 	misses[8] 	41156
scalar abilene_cost_network.node[8].content_store 	decision_yes[8] 	20605
scalar abilene_cost_network.node[8].content_store 	decision_no[8] 	20547
scalar abilene_cost_network.node[8].content_store 	decision_ratio[8] 	0.50070470451011
scalar abilene_cost_network.node[8].content_store 	correction_factor[8] 	0.13612850530901
scalar abilene_cost_network.node[8].content_store 	xi[8] 	1
scalar abilene_cost_network.node[9].core_layer 	interests[9] 	188543
scalar abilene_cost_network.node[9].core_layer 	data[9] 	125117
scalar abilene_cost_network.node[9].content_store 	p_hit[9] 	0.33583320515744
scalar abilene_cost_network.node[9].content_store 	hits[9] 	63319
scalar abilene_cost_network.node[9].content_store 	misses[9] 	125224
scalar abilene_cost_network.node[9].content_store 	decision_yes[9] 	62419
scalar abilene_cost_network.node[9].content_store 	decision_no[9] 	62696
scalar abilene_cost_network.node[9].content_store 	decision_ratio[9] 	0.49889301842305
scalar abilene_cost_network.node[9].content_store 	correction_factor[9] 	0.13612850530901
scalar abilene_cost_network.node[9].content_store 	xi[9] 	1
scalar abilene_cost_network.node[10].core_layer 	interests[10] 	158111
scalar abilene_cost_network.node[10].core_layer 	data[10] 	149118
scalar abilene_cost_network.node[10].content_store 	p_hit[10] 	0.056877763090487
scalar abilene_cost_network.node[10].content_store 	hits[10] 	8993
scalar abilene_cost_network.node[10].content_store 	misses[10] 	149118
scalar abilene_cost_network.node[10].content_store 	decision_yes[10] 	74696
scalar abilene_cost_network.node[10].content_store 	decision_no[10] 	74409
scalar abilene_cost_network.node[10].content_store 	decision_ratio[10] 	0.50096240904061
scalar abilene_cost_network.node[10].content_store 	correction_factor[10] 	0.13612850530901
scalar abilene_cost_network.node[10].content_store 	xi[10] 	1
scalar abilene_cost_network.node[11].core_layer 	interests[11] 	103911
scalar abilene_cost_network.node[11].core_layer 	repo_load[11] 	103911
scalar abilene_cost_network.node[11].core_layer 	data[11] 	0
scalar abilene_cost_network.node[11].content_store 	p_hit[11] 	0
scalar abilene_cost_network.node[11].content_store 	hits[11] 	0
scalar abilene_cost_network.node[11].content_store 	misses[11] 	103911
scalar abilene_cost_network.node[11].content_store 	decision_yes[11] 	0
scalar abilene_cost_network.node[11].content_store 	decision_no[11] 	103911
scalar abilene_cost_network.node[11].content_store 	decision_ratio[11] 	0
scalar abilene_cost_network.node[12].core_layer 	interests[12] 	92940
scalar abilene_cost_network.node[12].core_layer 	repo_load[12] 	92940
scalar abilene_cost_network.node[12].core_layer 	data[12] 	0
scalar abilene_cost_network.node[12].content_store 	p_hit[12] 	0
scalar abilene_cost_network.node[12].content_store 	hits[12] 	0
scalar abilene_cost_network.node[12].content_store 	misses[12] 	92940
scalar abilene_cost_network.node[12].content_store 	decision_yes[12] 	0
scalar abilene_cost_network.node[12].content_store 	decision_no[12] 	92940
scalar abilene_cost_network.node[12].content_store 	decision_ratio[12] 	0
scalar abilene_cost_network.node[13].core_layer 	interests[13] 	102451
scalar abilene_cost_network.node[13].core_layer 	repo_load[13] 	102451
scalar abilene_cost_network.node[13].core_layer 	data[13] 	0
scalar abilene_cost_network.node[13].content_store 	p_hit[13] 	0
scalar abilene_cost_network.node[13].content_store 	hits[13] 	0
scalar abilene_cost_network.node[13].content_store 	misses[13] 	102451
scalar abilene_cost_network.node[13].content_store 	decision_yes[13] 	0
scalar abilene_cost_network.node[13].content_store 	decision_no[13] 	102451
scalar abilene_cost_network.node[13].content_store 	decision_ratio[13] 	0
scalar abilene_cost_network.client[0] 	hdistance[0] 	2.5143463101557
scalar abilene_cost_network.client[0] 	downloads[0] 	180116
scalar abilene_cost_network.client[0] 	avg_time[0] 	0.010408307013
scalar abilene_cost_network.client[0] 	interests_sent[0] 	180248
scalar abilene_cost_network.client[5] 	hdistance[5] 	3.481160822518
scalar abilene_cost_network.client[5] 	downloads[5] 	179838
scalar abilene_cost_network.client[5] 	avg_time[5] 	0.01270641864
scalar abilene_cost_network.client[5] 	interests_sent[5] 	179982
scalar abilene_cost_network.client[9] 	hdistance[9] 	2.2627449669291
scalar abilene_cost_network.client[9] 	downloads[9] 	179463
scalar abilene_cost_network.client[9] 	avg_time[9] 	0.009235003894
scalar abilene_cost_network.client[9] 	interests_sent[9] 	179569
