version 2
run General-1021-20140423-18:57:46-26863
attr D lce
attr F nrr
attr R lru
attr a 0.8
attr configname General
attr csize 2
attr ctlg 10^3
attr datetime 20140423-18:57:46
attr experiment General
attr inifile omnetpp.ini
attr iterationvars "$net=simple_scenario, $rep=3, $priceratiovalue=9, $a=0.8, $ctlg=10^3, $F=nrr, $ttl=1000, $D=lce, $R=lru, $csize=2"
attr iterationvars2 "$net=simple_scenario, $rep=3, $priceratiovalue=9, $a=0.8, $ctlg=10^3, $F=nrr, $ttl=1000, $D=lce, $R=lru, $csize=2, $repetition=0"
attr measurement "$net=simple_scenario, $rep=3, $priceratiovalue=9, $a=0.8, $ctlg=10^3, $F=nrr, $ttl=1000, $D=lce, $R=lru, $csize=2"
attr net simple_scenario
attr network networks.${net=simple_scenario}_network
attr priceratiovalue 9
attr processid 26863
attr rep 3
attr repetition 0
attr replication #0
attr resultdir results
attr runnumber 1021
attr seedset 3
attr ttl 1000

scalar . 	a 	0.8
scalar . 	csize 	2
scalar . 	priceratiovalue 	9
scalar . 	rep 	3
scalar . 	ttl 	1000
scalar simple_scenario_network.content_distribution 	repo-0 	3
scalar simple_scenario_network.content_distribution 	repo-1 	4
scalar simple_scenario_network.content_distribution 	client-0 	0
scalar simple_scenario_network.content_distribution 	repo-0_card 	524
scalar simple_scenario_network.content_distribution 	repo-1_card 	476
scalar simple_scenario_network.statistics 	p_hit 	0.011636015897704
scalar simple_scenario_network.statistics 	interests 	105826.6
scalar simple_scenario_network.statistics 	data 	69919.4
scalar simple_scenario_network.statistics 	hdistance 	2.9129311113091
scalar simple_scenario_network.statistics 	avg_time 	0.001998310611
scalar simple_scenario_network.statistics 	downloads 	179536
scalar simple_scenario_network.statistics 	total_cost 	79530
scalar simple_scenario_network.node[0].core_layer 	interests[0] 	179536
scalar simple_scenario_network.node[0].core_layer 	data[0] 	176218
scalar simple_scenario_network.node[0].core_layer 	repo_int[0] 	173379
scalar simple_scenario_network.node[0].content_store 	p_hit[0] 	0.018480973175296
scalar simple_scenario_network.node[0].content_store 	hits[0] 	3318
scalar simple_scenario_network.node[0].content_store 	misses[0] 	176218
scalar simple_scenario_network.node[1].core_layer 	interests[1] 	97441
scalar simple_scenario_network.node[1].core_layer 	data[1] 	95637
scalar simple_scenario_network.node[1].content_store 	p_hit[1] 	0.018513767305344
scalar simple_scenario_network.node[1].content_store 	hits[1] 	1804
scalar simple_scenario_network.node[1].content_store 	misses[1] 	95637
scalar simple_scenario_network.node[2].core_layer 	interests[2] 	78777
scalar simple_scenario_network.node[2].core_layer 	data[2] 	77742
scalar simple_scenario_network.node[2].content_store 	p_hit[2] 	0.013138352564835
scalar simple_scenario_network.node[2].content_store 	hits[2] 	1035
scalar simple_scenario_network.node[2].content_store 	misses[2] 	77742
scalar simple_scenario_network.node[3].core_layer 	interests[3] 	95637
scalar simple_scenario_network.node[3].core_layer 	repo_load[3] 	95637
scalar simple_scenario_network.node[3].core_layer 	data[3] 	0
scalar simple_scenario_network.node[3].content_store 	p_hit[3] 	0
scalar simple_scenario_network.node[3].content_store 	hits[3] 	0
scalar simple_scenario_network.node[3].content_store 	misses[3] 	95637
scalar simple_scenario_network.node[4].core_layer 	interests[4] 	77742
scalar simple_scenario_network.node[4].core_layer 	repo_load[4] 	77742
scalar simple_scenario_network.node[4].core_layer 	data[4] 	0
scalar simple_scenario_network.node[4].content_store 	p_hit[4] 	0
scalar simple_scenario_network.node[4].content_store 	hits[4] 	0
scalar simple_scenario_network.node[4].content_store 	misses[4] 	77742
scalar simple_scenario_network.client[0] 	hdistance[0] 	2.9129311113091
scalar simple_scenario_network.client[0] 	downloads[0] 	179536
scalar simple_scenario_network.client[0] 	avg_time[0] 	0.001998310611
