version 2
run General-6-20140423-00:21:27-7488
attr D lce
attr F nrr
attr R lru
attr a 0.8
attr configname General
attr csize 10^3
attr ctlg 10^8
attr datetime 20140423-00:21:27
attr experiment General
attr inifile omnetpp.ini
attr iterationvars "$net=simple_scenario, $rep=1, $priceratiovalue=1, $a=0.8, $ctlg=10^8, $F=nrr, $ttl=1000, $D=lce, $R=lru, $csize=10^3"
attr iterationvars2 "$net=simple_scenario, $rep=1, $priceratiovalue=1, $a=0.8, $ctlg=10^8, $F=nrr, $ttl=1000, $D=lce, $R=lru, $csize=10^3, $repetition=0"
attr measurement "$net=simple_scenario, $rep=1, $priceratiovalue=1, $a=0.8, $ctlg=10^8, $F=nrr, $ttl=1000, $D=lce, $R=lru, $csize=10^3"
attr net simple_scenario
attr network networks.${net=simple_scenario}_network
attr priceratiovalue 1
attr processid 7488
attr rep 1
attr repetition 0
attr replication #0
attr resultdir results
attr runnumber 6
attr seedset 1
attr ttl 1000

scalar . 	a 	0.8
scalar . 	priceratiovalue 	1
scalar . 	rep 	1
scalar . 	ttl 	1000
scalar simple_scenario_network.content_distribution 	repo-0 	3
scalar simple_scenario_network.content_distribution 	repo-1 	4
scalar simple_scenario_network.content_distribution 	client-0 	0
scalar simple_scenario_network.content_distribution 	repo-0_card 	50003719
scalar simple_scenario_network.content_distribution 	repo-1_card 	49996281
scalar simple_scenario_network.statistics 	p_hit 	0.010839825789191
scalar simple_scenario_network.statistics 	interests 	105481.4
scalar simple_scenario_network.statistics 	data 	69643.8
scalar simple_scenario_network.statistics 	hdistance 	2.9114109840558
scalar simple_scenario_network.statistics 	avg_time 	0.001999952531
scalar simple_scenario_network.statistics 	downloads 	179187
scalar simple_scenario_network.statistics 	total_cost 	86735
scalar simple_scenario_network.node[0].core_layer 	interests[0] 	179188
scalar simple_scenario_network.node[0].core_layer 	data[0] 	174748
scalar simple_scenario_network.node[0].core_layer 	repo_int[0] 	173471
scalar simple_scenario_network.node[0].content_store 	p_hit[0] 	0.024778444985155
scalar simple_scenario_network.node[0].content_store 	hits[0] 	4440
scalar simple_scenario_network.node[0].content_store 	misses[0] 	174748
scalar simple_scenario_network.node[1].core_layer 	interests[1] 	87581
scalar simple_scenario_network.node[1].core_layer 	data[1] 	86961
scalar simple_scenario_network.node[1].content_store 	p_hit[1] 	0.0070791610052409
scalar simple_scenario_network.node[1].content_store 	hits[1] 	620
scalar simple_scenario_network.node[1].content_store 	misses[1] 	86961
scalar simple_scenario_network.node[2].core_layer 	interests[2] 	87167
scalar simple_scenario_network.node[2].core_layer 	data[2] 	86510
scalar simple_scenario_network.node[2].content_store 	p_hit[2] 	0.0075372560716785
scalar simple_scenario_network.node[2].content_store 	hits[2] 	657
scalar simple_scenario_network.node[2].content_store 	misses[2] 	86510
scalar simple_scenario_network.node[3].core_layer 	interests[3] 	86961
scalar simple_scenario_network.node[3].core_layer 	repo_load[3] 	86961
scalar simple_scenario_network.node[3].core_layer 	data[3] 	0
scalar simple_scenario_network.node[3].content_store 	p_hit[3] 	0
scalar simple_scenario_network.node[3].content_store 	hits[3] 	0
scalar simple_scenario_network.node[3].content_store 	misses[3] 	86961
scalar simple_scenario_network.node[4].core_layer 	interests[4] 	86510
scalar simple_scenario_network.node[4].core_layer 	repo_load[4] 	86510
scalar simple_scenario_network.node[4].core_layer 	data[4] 	0
scalar simple_scenario_network.node[4].content_store 	p_hit[4] 	0
scalar simple_scenario_network.node[4].content_store 	hits[4] 	0
scalar simple_scenario_network.node[4].content_store 	misses[4] 	86510
scalar simple_scenario_network.client[0] 	hdistance[0] 	2.9114109840558
scalar simple_scenario_network.client[0] 	downloads[0] 	179187
scalar simple_scenario_network.client[0] 	avg_time[0] 	0.001999952531
