version 2
run General-9-20140626-16:47:31-10669
attr D lce
attr F nrr
attr R lru
attr a 1
attr configname General
attr csize 1e3
attr ctlg 1e5
attr datetime 20140626-16:47:31
attr experiment General
attr inifile omnetpp.ini
attr iterationvars "$net=geant_cost, $rep=5, $priceratiovalue=10, $weights=0.333_0.333_0.334, $lambda=100, $a=1, $ctlg=1e5, $F=nrr, $ttl=1000, $D=lce, $xi=1, $R=lru, $csize=1e3, $pricebits=0, $mytime=1800"
attr iterationvars2 "$net=geant_cost, $rep=5, $priceratiovalue=10, $weights=0.333_0.333_0.334, $lambda=100, $a=1, $ctlg=1e5, $F=nrr, $ttl=1000, $D=lce, $xi=1, $R=lru, $csize=1e3, $pricebits=0, $mytime=1800, $repetition=0"
attr lambda 100
attr measurement "$net=geant_cost, $rep=5, $priceratiovalue=10, $weights=0.333_0.333_0.334, $lambda=100, $a=1, $ctlg=1e5, $F=nrr, $ttl=1000, $D=lce, $xi=1, $R=lru, $csize=1e3, $pricebits=0, $mytime=1800"
attr mytime 1800
attr net geant_cost
attr network "networks.${net=geant_cost, abilene_cost}_network"
attr pricebits 0
attr priceratiovalue 10
attr processid 10669
attr rep 5
attr repetition 0
attr replication #0
attr resultdir results
attr runnumber 9
attr seedset 5
attr ttl 1000
attr weights 0.333_0.333_0.334
attr xi 1

scalar . 	a 	1
scalar . 	csize 	1e3
scalar . 	ctlg 	1e5
scalar . 	lambda 	100
scalar . 	mytime 	1800
scalar . 	pricebits 	0
scalar . 	priceratiovalue 	10
scalar . 	rep 	5
scalar . 	ttl 	1000
scalar . 	xi 	1
scalar geant_cost_network.content_distribution 	repo-0 	22
scalar geant_cost_network.content_distribution 	repo-1 	23
scalar geant_cost_network.content_distribution 	repo-2 	24
scalar geant_cost_network.content_distribution 	client-0 	20
scalar geant_cost_network.content_distribution 	client-1 	10
scalar geant_cost_network.content_distribution 	client-2 	12
scalar geant_cost_network.content_distribution 	client-3 	9
scalar geant_cost_network.content_distribution 	client-4 	5
scalar geant_cost_network.content_distribution 	repo-0_card 	33102
scalar geant_cost_network.content_distribution 	repo-1_card 	33495
scalar geant_cost_network.content_distribution 	repo-2_card 	33403
scalar geant_cost_network.statistics 	repo_popularity[0] 	0.44346789261525
scalar geant_cost_network.statistics 	repo_popularity[1] 	0.29134602320581
scalar geant_cost_network.statistics 	repo_popularity[2] 	0.26518608417894
scalar geant_cost_network.statistics 	stabilization_time 	36060
scalar geant_cost_network.node[7].face$o[4].channel 	price[7] 	0
scalar geant_cost_network.node[7].face$o[4].channel 	represented_price[7] 	0
scalar geant_cost_network.node[8].face$o[3].channel 	price[8] 	0
scalar geant_cost_network.node[8].face$o[3].channel 	represented_price[8] 	0
scalar geant_cost_network.node[21].face$o[5].channel 	price[21] 	0
scalar geant_cost_network.node[21].face$o[5].channel 	represented_price[21] 	0
scalar geant_cost_network.node[22].face$o[1].channel 	price[22] 	0
scalar geant_cost_network.node[22].face$o[1].channel 	represented_price[22] 	0
scalar geant_cost_network.node[23].face$o[1].channel 	price[23] 	1
scalar geant_cost_network.node[23].face$o[1].channel 	represented_price[23] 	1
scalar geant_cost_network.node[24].face$o[1].channel 	price[24] 	10
scalar geant_cost_network.node[24].face$o[1].channel 	represented_price[24] 	10
scalar geant_cost_network.statistics 	p_hit 	0.1253714506535
scalar geant_cost_network.statistics 	interests 	125454.08
scalar geant_cost_network.statistics 	data 	89476.4
scalar geant_cost_network.statistics 	hdistance 	3.0535773112929
scalar geant_cost_network.statistics 	avg_time 	0.007542439538
scalar geant_cost_network.statistics 	downloads 	897944
scalar geant_cost_network.statistics 	total_cost 	1843606
scalar geant_cost_network.statistics 	total_replicas 	100000
scalar geant_cost_network.statistics 	inner_hit 	0.43926347300054
scalar geant_cost_network.statistics 	interests_sent 	899439
scalar geant_cost_network.node[0].core_layer 	interests[0] 	0
scalar geant_cost_network.node[0].core_layer 	data[0] 	0
scalar geant_cost_network.node[0].core_layer 	repo_int[0] 	503510
scalar geant_cost_network.node[0].content_store 	p_hit[0] 	-nan
scalar geant_cost_network.node[0].content_store 	hits[0] 	0
scalar geant_cost_network.node[0].content_store 	misses[0] 	0
scalar geant_cost_network.node[0].content_store 	decision_yes[0] 	0
scalar geant_cost_network.node[0].content_store 	decision_no[0] 	0
scalar geant_cost_network.node[0].content_store 	decision_ratio[0] 	0
scalar geant_cost_network.node[1].core_layer 	interests[1] 	0
scalar geant_cost_network.node[1].core_layer 	data[1] 	0
scalar geant_cost_network.node[1].content_store 	p_hit[1] 	-nan
scalar geant_cost_network.node[1].content_store 	hits[1] 	0
scalar geant_cost_network.node[1].content_store 	misses[1] 	0
scalar geant_cost_network.node[1].content_store 	decision_yes[1] 	0
scalar geant_cost_network.node[1].content_store 	decision_no[1] 	0
scalar geant_cost_network.node[1].content_store 	decision_ratio[1] 	0
scalar geant_cost_network.node[2].core_layer 	interests[2] 	0
scalar geant_cost_network.node[2].core_layer 	data[2] 	0
scalar geant_cost_network.node[2].content_store 	p_hit[2] 	-nan
scalar geant_cost_network.node[2].content_store 	hits[2] 	0
scalar geant_cost_network.node[2].content_store 	misses[2] 	0
scalar geant_cost_network.node[2].content_store 	decision_yes[2] 	0
scalar geant_cost_network.node[2].content_store 	decision_no[2] 	0
scalar geant_cost_network.node[2].content_store 	decision_ratio[2] 	0
scalar geant_cost_network.node[3].core_layer 	interests[3] 	145678
scalar geant_cost_network.node[3].core_layer 	data[3] 	141639
scalar geant_cost_network.node[3].content_store 	p_hit[3] 	0.027725531652
scalar geant_cost_network.node[3].content_store 	hits[3] 	4039
scalar geant_cost_network.node[3].content_store 	misses[3] 	141639
scalar geant_cost_network.node[3].content_store 	decision_yes[3] 	141605
scalar geant_cost_network.node[3].content_store 	decision_no[3] 	0
scalar geant_cost_network.node[3].content_store 	decision_ratio[3] 	1
scalar geant_cost_network.node[4].core_layer 	interests[4] 	218035
scalar geant_cost_network.node[4].core_layer 	data[4] 	216854
scalar geant_cost_network.node[4].content_store 	p_hit[4] 	0.0054073887219942
scalar geant_cost_network.node[4].content_store 	hits[4] 	1179
scalar geant_cost_network.node[4].content_store 	misses[4] 	216856
scalar geant_cost_network.node[4].content_store 	decision_yes[4] 	216841
scalar geant_cost_network.node[4].content_store 	decision_no[4] 	0
scalar geant_cost_network.node[4].content_store 	decision_ratio[4] 	1
scalar geant_cost_network.node[5].core_layer 	interests[5] 	183427
scalar geant_cost_network.node[5].core_layer 	data[5] 	141573
scalar geant_cost_network.node[5].content_store 	p_hit[5] 	0.22597545617603
scalar geant_cost_network.node[5].content_store 	hits[5] 	41450
scalar geant_cost_network.node[5].content_store 	misses[5] 	141977
scalar geant_cost_network.node[5].content_store 	decision_yes[5] 	141573
scalar geant_cost_network.node[5].content_store 	decision_no[5] 	0
scalar geant_cost_network.node[5].content_store 	decision_ratio[5] 	1
scalar geant_cost_network.node[6].core_layer 	interests[6] 	71176
scalar geant_cost_network.node[6].core_layer 	data[6] 	67955
scalar geant_cost_network.node[6].content_store 	p_hit[6] 	0.045254018208385
scalar geant_cost_network.node[6].content_store 	hits[6] 	3221
scalar geant_cost_network.node[6].content_store 	misses[6] 	67955
scalar geant_cost_network.node[6].content_store 	decision_yes[6] 	67955
scalar geant_cost_network.node[6].content_store 	decision_no[6] 	0
scalar geant_cost_network.node[6].content_store 	decision_ratio[6] 	1
scalar geant_cost_network.node[7].core_layer 	interests[7] 	238472
scalar geant_cost_network.node[7].core_layer 	data[7] 	236987
scalar geant_cost_network.node[7].content_store 	p_hit[7] 	0.0062229527994901
scalar geant_cost_network.node[7].content_store 	hits[7] 	1484
scalar geant_cost_network.node[7].content_store 	misses[7] 	236988
scalar geant_cost_network.node[7].content_store 	decision_yes[7] 	236971
scalar geant_cost_network.node[7].content_store 	decision_no[7] 	0
scalar geant_cost_network.node[7].content_store 	decision_ratio[7] 	1
scalar geant_cost_network.node[8].core_layer 	interests[8] 	239766
scalar geant_cost_network.node[8].core_layer 	data[8] 	237905
scalar geant_cost_network.node[8].content_store 	p_hit[8] 	0.0077617343576654
scalar geant_cost_network.node[8].content_store 	hits[8] 	1861
scalar geant_cost_network.node[8].content_store 	misses[8] 	237905
scalar geant_cost_network.node[8].content_store 	decision_yes[8] 	237896
scalar geant_cost_network.node[8].content_store 	decision_no[8] 	0
scalar geant_cost_network.node[8].content_store 	decision_ratio[8] 	1
scalar geant_cost_network.node[9].core_layer 	interests[9] 	356572
scalar geant_cost_network.node[9].core_layer 	data[9] 	315215
scalar geant_cost_network.node[9].content_store 	p_hit[9] 	0.1139994166676
scalar geant_cost_network.node[9].content_store 	hits[9] 	40649
scalar geant_cost_network.node[9].content_store 	misses[9] 	315923
scalar geant_cost_network.node[9].content_store 	decision_yes[9] 	315179
scalar geant_cost_network.node[9].content_store 	decision_no[9] 	0
scalar geant_cost_network.node[9].content_store 	decision_ratio[9] 	1
scalar geant_cost_network.node[10].core_layer 	interests[10] 	190556
scalar geant_cost_network.node[10].core_layer 	data[10] 	138456
scalar geant_cost_network.node[10].content_store 	p_hit[10] 	0.27216671214761
scalar geant_cost_network.node[10].content_store 	hits[10] 	51863
scalar geant_cost_network.node[10].content_store 	misses[10] 	138693
scalar geant_cost_network.node[10].content_store 	decision_yes[10] 	138456
scalar geant_cost_network.node[10].content_store 	decision_no[10] 	0
scalar geant_cost_network.node[10].content_store 	decision_ratio[10] 	1
scalar geant_cost_network.node[11].core_layer 	interests[11] 	0
scalar geant_cost_network.node[11].core_layer 	data[11] 	0
scalar geant_cost_network.node[11].content_store 	p_hit[11] 	-nan
scalar geant_cost_network.node[11].content_store 	hits[11] 	0
scalar geant_cost_network.node[11].content_store 	misses[11] 	0
scalar geant_cost_network.node[11].content_store 	decision_yes[11] 	0
scalar geant_cost_network.node[11].content_store 	decision_no[11] 	0
scalar geant_cost_network.node[11].content_store 	decision_ratio[11] 	0
scalar geant_cost_network.node[12].core_layer 	interests[12] 	316726
scalar geant_cost_network.node[12].core_layer 	data[12] 	262400
scalar geant_cost_network.node[12].content_store 	p_hit[12] 	0.16858104481476
scalar geant_cost_network.node[12].content_store 	hits[12] 	53394
scalar geant_cost_network.node[12].content_store 	misses[12] 	263332
scalar geant_cost_network.node[12].content_store 	decision_yes[12] 	262396
scalar geant_cost_network.node[12].content_store 	decision_no[12] 	0
scalar geant_cost_network.node[12].content_store 	decision_ratio[12] 	1
scalar geant_cost_network.node[13].core_layer 	interests[13] 	49328
scalar geant_cost_network.node[13].core_layer 	data[13] 	1165
scalar geant_cost_network.node[13].content_store 	p_hit[13] 	0.97638258190075
scalar geant_cost_network.node[13].content_store 	hits[13] 	48163
scalar geant_cost_network.node[13].content_store 	misses[13] 	1165
scalar geant_cost_network.node[13].content_store 	decision_yes[13] 	1165
scalar geant_cost_network.node[13].content_store 	decision_no[13] 	0
scalar geant_cost_network.node[13].content_store 	decision_ratio[13] 	1
scalar geant_cost_network.node[14].core_layer 	interests[14] 	88266
scalar geant_cost_network.node[14].core_layer 	data[14] 	66282
scalar geant_cost_network.node[14].content_store 	p_hit[14] 	0.24738857544241
scalar geant_cost_network.node[14].content_store 	hits[14] 	21836
scalar geant_cost_network.node[14].content_store 	misses[14] 	66430
scalar geant_cost_network.node[14].content_store 	decision_yes[14] 	66280
scalar geant_cost_network.node[14].content_store 	decision_no[14] 	0
scalar geant_cost_network.node[14].content_store 	decision_ratio[14] 	1
scalar geant_cost_network.node[15].core_layer 	interests[15] 	77024
scalar geant_cost_network.node[15].core_layer 	data[15] 	8
scalar geant_cost_network.node[15].content_store 	p_hit[15] 	0.99989613626921
scalar geant_cost_network.node[15].content_store 	hits[15] 	77016
scalar geant_cost_network.node[15].content_store 	misses[15] 	8
scalar geant_cost_network.node[15].content_store 	decision_yes[15] 	8
scalar geant_cost_network.node[15].content_store 	decision_no[15] 	0
scalar geant_cost_network.node[15].content_store 	decision_ratio[15] 	1
scalar geant_cost_network.node[16].core_layer 	interests[16] 	0
scalar geant_cost_network.node[16].core_layer 	data[16] 	0
scalar geant_cost_network.node[16].content_store 	p_hit[16] 	-nan
scalar geant_cost_network.node[16].content_store 	hits[16] 	0
scalar geant_cost_network.node[16].content_store 	misses[16] 	0
scalar geant_cost_network.node[16].content_store 	decision_yes[16] 	0
scalar geant_cost_network.node[16].content_store 	decision_no[16] 	0
scalar geant_cost_network.node[16].content_store 	decision_ratio[16] 	0
scalar geant_cost_network.node[17].core_layer 	interests[17] 	0
scalar geant_cost_network.node[17].core_layer 	data[17] 	0
scalar geant_cost_network.node[17].content_store 	p_hit[17] 	-nan
scalar geant_cost_network.node[17].content_store 	hits[17] 	0
scalar geant_cost_network.node[17].content_store 	misses[17] 	0
scalar geant_cost_network.node[17].content_store 	decision_yes[17] 	0
scalar geant_cost_network.node[17].content_store 	decision_no[17] 	0
scalar geant_cost_network.node[17].content_store 	decision_ratio[17] 	0
scalar geant_cost_network.node[18].core_layer 	interests[18] 	108681
scalar geant_cost_network.node[18].core_layer 	data[18] 	102641
scalar geant_cost_network.node[18].content_store 	p_hit[18] 	0.055575491576264
scalar geant_cost_network.node[18].content_store 	hits[18] 	6040
scalar geant_cost_network.node[18].content_store 	misses[18] 	102641
scalar geant_cost_network.node[18].content_store 	decision_yes[18] 	102641
scalar geant_cost_network.node[18].content_store 	decision_no[18] 	0
scalar geant_cost_network.node[18].content_store 	decision_ratio[18] 	1
scalar geant_cost_network.node[19].core_layer 	interests[19] 	0
scalar geant_cost_network.node[19].core_layer 	data[19] 	0
scalar geant_cost_network.node[19].content_store 	p_hit[19] 	-nan
scalar geant_cost_network.node[19].content_store 	hits[19] 	0
scalar geant_cost_network.node[19].content_store 	misses[19] 	0
scalar geant_cost_network.node[19].content_store 	decision_yes[19] 	0
scalar geant_cost_network.node[19].content_store 	decision_no[19] 	0
scalar geant_cost_network.node[19].content_store 	decision_ratio[19] 	0
scalar geant_cost_network.node[20].core_layer 	interests[20] 	179987
scalar geant_cost_network.node[20].core_layer 	data[20] 	140381
scalar geant_cost_network.node[20].content_store 	p_hit[20] 	0.21843244234306
scalar geant_cost_network.node[20].content_store 	hits[20] 	39315
scalar geant_cost_network.node[20].content_store 	misses[20] 	140672
scalar geant_cost_network.node[20].content_store 	decision_yes[20] 	140381
scalar geant_cost_network.node[20].content_store 	decision_no[20] 	0
scalar geant_cost_network.node[20].content_store 	decision_ratio[20] 	1
scalar geant_cost_network.node[21].core_layer 	interests[21] 	169148
scalar geant_cost_network.node[21].core_layer 	data[21] 	167449
scalar geant_cost_network.node[21].content_store 	p_hit[21] 	0.010044458107693
scalar geant_cost_network.node[21].content_store 	hits[21] 	1699
scalar geant_cost_network.node[21].content_store 	misses[21] 	167449
scalar geant_cost_network.node[21].content_store 	decision_yes[21] 	167449
scalar geant_cost_network.node[21].content_store 	decision_no[21] 	0
scalar geant_cost_network.node[21].content_store 	decision_ratio[21] 	1
scalar geant_cost_network.node[22].core_layer 	interests[22] 	166945
scalar geant_cost_network.node[22].core_layer 	repo_load[22] 	166945
scalar geant_cost_network.node[22].core_layer 	data[22] 	0
scalar geant_cost_network.node[22].content_store 	p_hit[22] 	0
scalar geant_cost_network.node[22].content_store 	hits[22] 	0
scalar geant_cost_network.node[22].content_store 	misses[22] 	166945
scalar geant_cost_network.node[22].content_store 	decision_yes[22] 	0
scalar geant_cost_network.node[22].content_store 	decision_no[22] 	166945
scalar geant_cost_network.node[22].content_store 	decision_ratio[22] 	0
scalar geant_cost_network.node[23].core_layer 	interests[23] 	169116
scalar geant_cost_network.node[23].core_layer 	repo_load[23] 	169116
scalar geant_cost_network.node[23].core_layer 	data[23] 	0
scalar geant_cost_network.node[23].content_store 	p_hit[23] 	0
scalar geant_cost_network.node[23].content_store 	hits[23] 	0
scalar geant_cost_network.node[23].content_store 	misses[23] 	169116
scalar geant_cost_network.node[23].content_store 	decision_yes[23] 	0
scalar geant_cost_network.node[23].content_store 	decision_no[23] 	169116
scalar geant_cost_network.node[23].content_store 	decision_ratio[23] 	0
scalar geant_cost_network.node[24].core_layer 	interests[24] 	167449
scalar geant_cost_network.node[24].core_layer 	repo_load[24] 	167449
scalar geant_cost_network.node[24].core_layer 	data[24] 	0
scalar geant_cost_network.node[24].content_store 	p_hit[24] 	0
scalar geant_cost_network.node[24].content_store 	hits[24] 	0
scalar geant_cost_network.node[24].content_store 	misses[24] 	167449
scalar geant_cost_network.node[24].content_store 	decision_yes[24] 	0
scalar geant_cost_network.node[24].content_store 	decision_no[24] 	167449
scalar geant_cost_network.node[24].content_store 	decision_ratio[24] 	0
scalar geant_cost_network.client[5] 	hdistance[5] 	2.8140368281428
scalar geant_cost_network.client[5] 	downloads[5] 	179428
scalar geant_cost_network.client[5] 	avg_time[5] 	0.009985065231
scalar geant_cost_network.client[5] 	interests_sent[5] 	179831
scalar geant_cost_network.client[9] 	hdistance[9] 	2.8669457509145
scalar geant_cost_network.client[9] 	downloads[9] 	179874
scalar geant_cost_network.client[9] 	avg_time[9] 	0.00608696702
scalar geant_cost_network.client[9] 	interests_sent[9] 	180142
scalar geant_cost_network.client[10] 	hdistance[10] 	3.5412202140746
scalar geant_cost_network.client[10] 	downloads[10] 	179657
scalar geant_cost_network.client[10] 	avg_time[10] 	0.007467367018
scalar geant_cost_network.client[10] 	interests_sent[10] 	179894
scalar geant_cost_network.client[12] 	hdistance[12] 	2.8612536993998
scalar geant_cost_network.client[12] 	downloads[12] 	179421
scalar geant_cost_network.client[12] 	avg_time[12] 	0.006682783265
scalar geant_cost_network.client[12] 	interests_sent[12] 	179717
scalar geant_cost_network.client[20] 	hdistance[20] 	3.1844300639326
scalar geant_cost_network.client[20] 	downloads[20] 	179564
scalar geant_cost_network.client[20] 	avg_time[20] 	0.007490015159
scalar geant_cost_network.client[20] 	interests_sent[20] 	179855
