version 2
run General-488-20140424-12:49:45-13171
attr D costprob0.01
attr F nrr
attr R lru
attr a 0
attr configname General
attr csize 10
attr ctlg 10^3
attr datetime 20140424-12:49:45
attr experiment General
attr inifile omnetpp.ini
attr iterationvars "$net=simple_scenario, $rep=3, $priceratiovalue=4, $a=0, $ctlg=10^3, $F=nrr, $ttl=1000, $D=costprob0.01, $R=lru, $csize=10"
attr iterationvars2 "$net=simple_scenario, $rep=3, $priceratiovalue=4, $a=0, $ctlg=10^3, $F=nrr, $ttl=1000, $D=costprob0.01, $R=lru, $csize=10, $repetition=0"
attr measurement "$net=simple_scenario, $rep=3, $priceratiovalue=4, $a=0, $ctlg=10^3, $F=nrr, $ttl=1000, $D=costprob0.01, $R=lru, $csize=10"
attr net simple_scenario
attr network networks.${net=simple_scenario}_network
attr priceratiovalue 4
attr processid 13171
attr rep 3
attr repetition 0
attr replication #0
attr resultdir results
attr runnumber 488
attr seedset 3
attr ttl 1000

scalar . 	a 	0
scalar . 	csize 	10
scalar . 	priceratiovalue 	4
scalar . 	rep 	3
scalar . 	ttl 	1000
scalar simple_scenario_network.content_distribution 	repo-0 	3
scalar simple_scenario_network.content_distribution 	repo-1 	4
scalar simple_scenario_network.content_distribution 	client-0 	0
scalar simple_scenario_network.content_distribution 	repo-0_card 	524
scalar simple_scenario_network.content_distribution 	repo-1_card 	476
scalar simple_scenario_network.statistics 	p_hit 	0.01005578198073
scalar simple_scenario_network.statistics 	interests 	106486
scalar simple_scenario_network.statistics 	data 	70517
scalar simple_scenario_network.statistics 	hdistance 	2.9307240639214
scalar simple_scenario_network.statistics 	avg_time 	0.001999731636
scalar simple_scenario_network.statistics 	downloads 	179846
scalar simple_scenario_network.statistics 	total_cost 	84377
scalar simple_scenario_network.node[0].core_layer 	interests[0] 	179845
scalar simple_scenario_network.node[0].core_layer 	data[0] 	178094
scalar simple_scenario_network.node[0].core_layer 	repo_int[0] 	174491
scalar simple_scenario_network.node[0].content_store 	p_hit[0] 	0.0097361616947927
scalar simple_scenario_network.node[0].content_store 	hits[0] 	1751
scalar simple_scenario_network.node[0].content_store 	misses[0] 	178094
scalar simple_scenario_network.node[1].core_layer 	interests[1] 	93809
scalar simple_scenario_network.node[1].core_layer 	data[1] 	92025
scalar simple_scenario_network.node[1].content_store 	p_hit[1] 	0.019017365071582
scalar simple_scenario_network.node[1].content_store 	hits[1] 	1784
scalar simple_scenario_network.node[1].content_store 	misses[1] 	92025
scalar simple_scenario_network.node[2].core_layer 	interests[2] 	84285
scalar simple_scenario_network.node[2].core_layer 	data[2] 	82466
scalar simple_scenario_network.node[2].content_store 	p_hit[2] 	0.0215815388266
scalar simple_scenario_network.node[2].content_store 	hits[2] 	1819
scalar simple_scenario_network.node[2].content_store 	misses[2] 	82466
scalar simple_scenario_network.node[3].core_layer 	interests[3] 	92025
scalar simple_scenario_network.node[3].core_layer 	repo_load[3] 	92025
scalar simple_scenario_network.node[3].core_layer 	data[3] 	0
scalar simple_scenario_network.node[3].content_store 	p_hit[3] 	0
scalar simple_scenario_network.node[3].content_store 	hits[3] 	0
scalar simple_scenario_network.node[3].content_store 	misses[3] 	92025
scalar simple_scenario_network.node[4].core_layer 	interests[4] 	82466
scalar simple_scenario_network.node[4].core_layer 	repo_load[4] 	82466
scalar simple_scenario_network.node[4].core_layer 	data[4] 	0
scalar simple_scenario_network.node[4].content_store 	p_hit[4] 	0
scalar simple_scenario_network.node[4].content_store 	hits[4] 	0
scalar simple_scenario_network.node[4].content_store 	misses[4] 	82466
scalar simple_scenario_network.client[0] 	hdistance[0] 	2.9307240639214
scalar simple_scenario_network.client[0] 	downloads[0] 	179846
scalar simple_scenario_network.client[0] 	avg_time[0] 	0.001999731636
