version 2
run General-0-20150722-12:17:07-31764
attr C 11666667
attr D lce
attr F spr
attr R lru
attr a 1
attr brates 0.3_0.7_1.5_2.5_3.5
attr configname General
attr ctlg 1e8
attr datetime 20150722-12:17:07
attr experiment General
attr inifile omnetpp.ini
attr iterationvars "$net=barabasi_100nodes, $rep=1, $lambda=100, $a=1, $ctlg=1e8, $brates=0.3_0.7_1.5_2.5_3.5, $F=spr, $ttl=1000, $D=lce, $R=lru, $C=11666667, $window=60, $variance=0.05, $mytime=180000"
attr iterationvars2 "$net=barabasi_100nodes, $rep=1, $lambda=100, $a=1, $ctlg=1e8, $brates=0.3_0.7_1.5_2.5_3.5, $F=spr, $ttl=1000, $D=lce, $R=lru, $C=11666667, $window=60, $variance=0.05, $mytime=180000, $repetition=0"
attr lambda 100
attr measurement "$net=barabasi_100nodes, $rep=1, $lambda=100, $a=1, $ctlg=1e8, $brates=0.3_0.7_1.5_2.5_3.5, $F=spr, $ttl=1000, $D=lce, $R=lru, $C=11666667, $window=60, $variance=0.05, $mytime=180000"
attr mytime 180000
attr net barabasi_100nodes
attr network networks.${net=barabasi_100nodes}_network
attr processid 31764
attr rep 1
attr repetition 0
attr replication #0
attr resultdir results
attr runnumber 0
attr seedset 1
attr ttl 1000
attr variance 0.05
attr window 60

scalar . 	C 	11666667
scalar . 	a 	1
scalar . 	ctlg 	1e8
scalar . 	lambda 	100
scalar . 	mytime 	180000
scalar . 	rep 	1
scalar . 	ttl 	1000
scalar . 	variance 	0.05
scalar . 	window 	60
scalar barabasi_100nodes_network.content_distribution 	repo-0 	46
scalar barabasi_100nodes_network.content_distribution 	repo-1 	55
scalar barabasi_100nodes_network.content_distribution 	repo-2 	69
scalar barabasi_100nodes_network.content_distribution 	repo-3 	1
scalar barabasi_100nodes_network.content_distribution 	repo-4 	87
scalar barabasi_100nodes_network.content_distribution 	repo-5 	72
scalar barabasi_100nodes_network.content_distribution 	repo-6 	50
scalar barabasi_100nodes_network.content_distribution 	repo-7 	9
scalar barabasi_100nodes_network.content_distribution 	repo-8 	58
scalar barabasi_100nodes_network.content_distribution 	repo-9 	94
scalar barabasi_100nodes_network.content_distribution 	repo-10 	57
scalar barabasi_100nodes_network.content_distribution 	repo-11 	36
scalar barabasi_100nodes_network.content_distribution 	repo-12 	44
scalar barabasi_100nodes_network.content_distribution 	repo-13 	38
scalar barabasi_100nodes_network.content_distribution 	repo-14 	52
scalar barabasi_100nodes_network.content_distribution 	repo-15 	3
scalar barabasi_100nodes_network.content_distribution 	repo-16 	0
scalar barabasi_100nodes_network.content_distribution 	repo-17 	21
scalar barabasi_100nodes_network.content_distribution 	repo-18 	73
scalar barabasi_100nodes_network.content_distribution 	repo-19 	56
scalar barabasi_100nodes_network.content_distribution 	repo-20 	66
scalar barabasi_100nodes_network.content_distribution 	repo-21 	30
scalar barabasi_100nodes_network.content_distribution 	repo-22 	8
scalar barabasi_100nodes_network.content_distribution 	repo-23 	49
scalar barabasi_100nodes_network.content_distribution 	repo-24 	32
scalar barabasi_100nodes_network.content_distribution 	repo-25 	40
scalar barabasi_100nodes_network.content_distribution 	repo-26 	42
scalar barabasi_100nodes_network.content_distribution 	repo-27 	45
scalar barabasi_100nodes_network.content_distribution 	repo-28 	33
scalar barabasi_100nodes_network.content_distribution 	repo-29 	28
scalar barabasi_100nodes_network.content_distribution 	repo-30 	79
scalar barabasi_100nodes_network.content_distribution 	repo-31 	98
scalar barabasi_100nodes_network.content_distribution 	repo-32 	95
scalar barabasi_100nodes_network.content_distribution 	repo-33 	17
scalar barabasi_100nodes_network.content_distribution 	repo-34 	81
scalar barabasi_100nodes_network.content_distribution 	repo-35 	89
scalar barabasi_100nodes_network.content_distribution 	repo-36 	59
scalar barabasi_100nodes_network.content_distribution 	repo-37 	48
scalar barabasi_100nodes_network.content_distribution 	repo-38 	76
scalar barabasi_100nodes_network.content_distribution 	repo-39 	23
scalar barabasi_100nodes_network.content_distribution 	repo-40 	22
scalar barabasi_100nodes_network.content_distribution 	repo-41 	67
scalar barabasi_100nodes_network.content_distribution 	repo-42 	62
scalar barabasi_100nodes_network.content_distribution 	repo-43 	75
scalar barabasi_100nodes_network.content_distribution 	repo-44 	70
scalar barabasi_100nodes_network.content_distribution 	repo-45 	71
scalar barabasi_100nodes_network.content_distribution 	repo-46 	82
scalar barabasi_100nodes_network.content_distribution 	repo-47 	53
scalar barabasi_100nodes_network.content_distribution 	repo-48 	85
scalar barabasi_100nodes_network.content_distribution 	repo-49 	91
scalar barabasi_100nodes_network.content_distribution 	repo-50 	51
scalar barabasi_100nodes_network.content_distribution 	repo-51 	37
scalar barabasi_100nodes_network.content_distribution 	repo-52 	54
scalar barabasi_100nodes_network.content_distribution 	repo-53 	96
scalar barabasi_100nodes_network.content_distribution 	repo-54 	4
scalar barabasi_100nodes_network.content_distribution 	repo-55 	31
scalar barabasi_100nodes_network.content_distribution 	repo-56 	78
scalar barabasi_100nodes_network.content_distribution 	repo-57 	68
scalar barabasi_100nodes_network.content_distribution 	repo-58 	39
scalar barabasi_100nodes_network.content_distribution 	repo-59 	27
scalar barabasi_100nodes_network.content_distribution 	repo-60 	97
scalar barabasi_100nodes_network.content_distribution 	repo-61 	60
scalar barabasi_100nodes_network.content_distribution 	repo-62 	43
scalar barabasi_100nodes_network.content_distribution 	repo-63 	86
scalar barabasi_100nodes_network.content_distribution 	repo-64 	15
scalar barabasi_100nodes_network.content_distribution 	repo-65 	13
scalar barabasi_100nodes_network.content_distribution 	repo-66 	10
scalar barabasi_100nodes_network.content_distribution 	repo-67 	7
scalar barabasi_100nodes_network.content_distribution 	repo-68 	63
scalar barabasi_100nodes_network.content_distribution 	repo-69 	64
scalar barabasi_100nodes_network.content_distribution 	repo-70 	35
scalar barabasi_100nodes_network.content_distribution 	repo-71 	65
scalar barabasi_100nodes_network.content_distribution 	repo-72 	74
scalar barabasi_100nodes_network.content_distribution 	repo-73 	20
scalar barabasi_100nodes_network.content_distribution 	repo-74 	80
scalar barabasi_100nodes_network.content_distribution 	repo-75 	41
scalar barabasi_100nodes_network.content_distribution 	repo-76 	25
scalar barabasi_100nodes_network.content_distribution 	repo-77 	5
scalar barabasi_100nodes_network.content_distribution 	repo-78 	24
scalar barabasi_100nodes_network.content_distribution 	repo-79 	29
scalar barabasi_100nodes_network.content_distribution 	repo-80 	93
scalar barabasi_100nodes_network.content_distribution 	repo-81 	61
scalar barabasi_100nodes_network.content_distribution 	repo-82 	2
scalar barabasi_100nodes_network.content_distribution 	repo-83 	19
scalar barabasi_100nodes_network.content_distribution 	repo-84 	99
scalar barabasi_100nodes_network.content_distribution 	repo-85 	16
scalar barabasi_100nodes_network.content_distribution 	repo-86 	90
scalar barabasi_100nodes_network.content_distribution 	repo-87 	77
scalar barabasi_100nodes_network.content_distribution 	repo-88 	12
scalar barabasi_100nodes_network.content_distribution 	repo-89 	26
scalar barabasi_100nodes_network.content_distribution 	repo-90 	34
scalar barabasi_100nodes_network.content_distribution 	repo-91 	88
scalar barabasi_100nodes_network.content_distribution 	repo-92 	18
scalar barabasi_100nodes_network.content_distribution 	repo-93 	83
scalar barabasi_100nodes_network.content_distribution 	repo-94 	84
scalar barabasi_100nodes_network.content_distribution 	repo-95 	92
scalar barabasi_100nodes_network.content_distribution 	repo-96 	14
scalar barabasi_100nodes_network.content_distribution 	repo-97 	6
scalar barabasi_100nodes_network.content_distribution 	repo-98 	47
scalar barabasi_100nodes_network.content_distribution 	repo-99 	11
scalar barabasi_100nodes_network.content_distribution 	client-0 	3
scalar barabasi_100nodes_network.content_distribution 	client-1 	71
scalar barabasi_100nodes_network.content_distribution 	client-2 	78
scalar barabasi_100nodes_network.content_distribution 	client-3 	12
scalar barabasi_100nodes_network.content_distribution 	client-4 	7
scalar barabasi_100nodes_network.content_distribution 	client-5 	81
scalar barabasi_100nodes_network.content_distribution 	client-6 	86
scalar barabasi_100nodes_network.content_distribution 	client-7 	80
scalar barabasi_100nodes_network.content_distribution 	client-8 	79
scalar barabasi_100nodes_network.content_distribution 	client-9 	64
scalar barabasi_100nodes_network.content_distribution 	client-10 	10
scalar barabasi_100nodes_network.content_distribution 	client-11 	31
scalar barabasi_100nodes_network.content_distribution 	client-12 	45
scalar barabasi_100nodes_network.content_distribution 	client-13 	39
scalar barabasi_100nodes_network.content_distribution 	client-14 	84
scalar barabasi_100nodes_network.content_distribution 	client-15 	95
scalar barabasi_100nodes_network.content_distribution 	client-16 	48
scalar barabasi_100nodes_network.content_distribution 	client-17 	29
scalar barabasi_100nodes_network.content_distribution 	client-18 	43
scalar barabasi_100nodes_network.content_distribution 	client-19 	0
scalar barabasi_100nodes_network.content_distribution 	client-20 	8
scalar barabasi_100nodes_network.content_distribution 	client-21 	57
scalar barabasi_100nodes_network.content_distribution 	client-22 	38
scalar barabasi_100nodes_network.content_distribution 	client-23 	90
scalar barabasi_100nodes_network.content_distribution 	client-24 	54
scalar barabasi_100nodes_network.content_distribution 	client-25 	24
scalar barabasi_100nodes_network.content_distribution 	client-26 	52
scalar barabasi_100nodes_network.content_distribution 	client-27 	67
scalar barabasi_100nodes_network.content_distribution 	client-28 	44
scalar barabasi_100nodes_network.content_distribution 	client-29 	82
scalar barabasi_100nodes_network.content_distribution 	client-30 	14
scalar barabasi_100nodes_network.content_distribution 	client-31 	49
scalar barabasi_100nodes_network.content_distribution 	client-32 	6
scalar barabasi_100nodes_network.content_distribution 	client-33 	91
scalar barabasi_100nodes_network.content_distribution 	client-34 	60
scalar barabasi_100nodes_network.content_distribution 	client-35 	75
scalar barabasi_100nodes_network.content_distribution 	client-36 	59
scalar barabasi_100nodes_network.content_distribution 	client-37 	32
scalar barabasi_100nodes_network.content_distribution 	client-38 	15
scalar barabasi_100nodes_network.content_distribution 	client-39 	85
scalar barabasi_100nodes_network.content_distribution 	client-40 	62
scalar barabasi_100nodes_network.content_distribution 	client-41 	16
scalar barabasi_100nodes_network.content_distribution 	client-42 	21
scalar barabasi_100nodes_network.content_distribution 	client-43 	70
scalar barabasi_100nodes_network.content_distribution 	client-44 	5
scalar barabasi_100nodes_network.content_distribution 	client-45 	65
scalar barabasi_100nodes_network.content_distribution 	client-46 	30
scalar barabasi_100nodes_network.content_distribution 	client-47 	35
scalar barabasi_100nodes_network.content_distribution 	client-48 	46
scalar barabasi_100nodes_network.content_distribution 	client-49 	55
scalar barabasi_100nodes_network.content_distribution 	client-50 	2
scalar barabasi_100nodes_network.content_distribution 	client-51 	88
scalar barabasi_100nodes_network.content_distribution 	client-52 	41
scalar barabasi_100nodes_network.content_distribution 	client-53 	93
scalar barabasi_100nodes_network.content_distribution 	client-54 	69
scalar barabasi_100nodes_network.content_distribution 	client-55 	94
scalar barabasi_100nodes_network.content_distribution 	client-56 	56
scalar barabasi_100nodes_network.content_distribution 	client-57 	11
scalar barabasi_100nodes_network.content_distribution 	client-58 	22
scalar barabasi_100nodes_network.content_distribution 	client-59 	68
scalar barabasi_100nodes_network.content_distribution 	client-60 	97
scalar barabasi_100nodes_network.content_distribution 	client-61 	37
scalar barabasi_100nodes_network.content_distribution 	client-62 	9
scalar barabasi_100nodes_network.content_distribution 	client-63 	28
scalar barabasi_100nodes_network.content_distribution 	client-64 	83
scalar barabasi_100nodes_network.content_distribution 	client-65 	50
scalar barabasi_100nodes_network.content_distribution 	client-66 	61
scalar barabasi_100nodes_network.content_distribution 	client-67 	26
scalar barabasi_100nodes_network.content_distribution 	client-68 	53
scalar barabasi_100nodes_network.content_distribution 	client-69 	1
scalar barabasi_100nodes_network.content_distribution 	client-70 	73
scalar barabasi_100nodes_network.content_distribution 	client-71 	92
scalar barabasi_100nodes_network.content_distribution 	client-72 	72
scalar barabasi_100nodes_network.content_distribution 	client-73 	40
scalar barabasi_100nodes_network.content_distribution 	client-74 	87
scalar barabasi_100nodes_network.content_distribution 	client-75 	66
scalar barabasi_100nodes_network.content_distribution 	client-76 	42
scalar barabasi_100nodes_network.content_distribution 	client-77 	89
scalar barabasi_100nodes_network.content_distribution 	client-78 	96
scalar barabasi_100nodes_network.content_distribution 	client-79 	47
scalar barabasi_100nodes_network.content_distribution 	client-80 	18
scalar barabasi_100nodes_network.content_distribution 	client-81 	33
scalar barabasi_100nodes_network.content_distribution 	client-82 	17
scalar barabasi_100nodes_network.content_distribution 	client-83 	51
scalar barabasi_100nodes_network.content_distribution 	client-84 	34
scalar barabasi_100nodes_network.content_distribution 	client-85 	4
scalar barabasi_100nodes_network.content_distribution 	client-86 	76
scalar barabasi_100nodes_network.content_distribution 	client-87 	13
scalar barabasi_100nodes_network.content_distribution 	client-88 	36
scalar barabasi_100nodes_network.content_distribution 	client-89 	58
scalar barabasi_100nodes_network.content_distribution 	client-90 	74
scalar barabasi_100nodes_network.content_distribution 	client-91 	23
scalar barabasi_100nodes_network.content_distribution 	client-92 	25
scalar barabasi_100nodes_network.content_distribution 	client-93 	77
scalar barabasi_100nodes_network.content_distribution 	client-94 	98
scalar barabasi_100nodes_network.content_distribution 	client-95 	27
scalar barabasi_100nodes_network.content_distribution 	client-96 	99
scalar barabasi_100nodes_network.content_distribution 	client-97 	19
scalar barabasi_100nodes_network.content_distribution 	client-98 	20
scalar barabasi_100nodes_network.content_distribution 	client-99 	63
scalar barabasi_100nodes_network.content_distribution 	repo-0_card 	25003342
scalar barabasi_100nodes_network.content_distribution 	repo-0_price 	0
scalar barabasi_100nodes_network.content_distribution 	repo-1_card 	25003067
scalar barabasi_100nodes_network.content_distribution 	repo-1_price 	0
scalar barabasi_100nodes_network.content_distribution 	repo-2_card 	24997040
scalar barabasi_100nodes_network.content_distribution 	repo-2_price 	0
scalar barabasi_100nodes_network.content_distribution 	repo-3_card 	24996551
scalar barabasi_100nodes_network.content_distribution 	repo-3_price 	0
scalar barabasi_100nodes_network.content_distribution 	repo-4_card 	0
scalar barabasi_100nodes_network.content_distribution 	repo-4_price 	0
scalar barabasi_100nodes_network.content_distribution 	repo-5_card 	0
scalar barabasi_100nodes_network.content_distribution 	repo-5_price 	0
scalar barabasi_100nodes_network.content_distribution 	repo-6_card 	0
scalar barabasi_100nodes_network.content_distribution 	repo-6_price 	0
scalar barabasi_100nodes_network.content_distribution 	repo-7_card 	0
scalar barabasi_100nodes_network.content_distribution 	repo-7_price 	0
scalar barabasi_100nodes_network.content_distribution 	repo-8_card 	0
scalar barabasi_100nodes_network.content_distribution 	repo-8_price 	0
scalar barabasi_100nodes_network.content_distribution 	repo-9_card 	0
scalar barabasi_100nodes_network.content_distribution 	repo-9_price 	0
scalar barabasi_100nodes_network.content_distribution 	repo-10_card 	0
scalar barabasi_100nodes_network.content_distribution 	repo-10_price 	0
scalar barabasi_100nodes_network.content_distribution 	repo-11_card 	0
scalar barabasi_100nodes_network.content_distribution 	repo-11_price 	0
scalar barabasi_100nodes_network.content_distribution 	repo-12_card 	0
scalar barabasi_100nodes_network.content_distribution 	repo-12_price 	0
scalar barabasi_100nodes_network.content_distribution 	repo-13_card 	0
scalar barabasi_100nodes_network.content_distribution 	repo-13_price 	0
scalar barabasi_100nodes_network.content_distribution 	repo-14_card 	0
scalar barabasi_100nodes_network.content_distribution 	repo-14_price 	0
scalar barabasi_100nodes_network.content_distribution 	repo-15_card 	0
scalar barabasi_100nodes_network.content_distribution 	repo-15_price 	0
scalar barabasi_100nodes_network.content_distribution 	repo-16_card 	0
scalar barabasi_100nodes_network.content_distribution 	repo-16_price 	0
scalar barabasi_100nodes_network.content_distribution 	repo-17_card 	0
scalar barabasi_100nodes_network.content_distribution 	repo-17_price 	0
scalar barabasi_100nodes_network.content_distribution 	repo-18_card 	0
scalar barabasi_100nodes_network.content_distribution 	repo-18_price 	0
scalar barabasi_100nodes_network.content_distribution 	repo-19_card 	0
scalar barabasi_100nodes_network.content_distribution 	repo-19_price 	0
scalar barabasi_100nodes_network.content_distribution 	repo-20_card 	0
scalar barabasi_100nodes_network.content_distribution 	repo-20_price 	0
scalar barabasi_100nodes_network.content_distribution 	repo-21_card 	0
scalar barabasi_100nodes_network.content_distribution 	repo-21_price 	0
scalar barabasi_100nodes_network.content_distribution 	repo-22_card 	0
scalar barabasi_100nodes_network.content_distribution 	repo-22_price 	0
scalar barabasi_100nodes_network.content_distribution 	repo-23_card 	0
scalar barabasi_100nodes_network.content_distribution 	repo-23_price 	0
scalar barabasi_100nodes_network.content_distribution 	repo-24_card 	0
scalar barabasi_100nodes_network.content_distribution 	repo-24_price 	0
scalar barabasi_100nodes_network.content_distribution 	repo-25_card 	0
scalar barabasi_100nodes_network.content_distribution 	repo-25_price 	0
scalar barabasi_100nodes_network.content_distribution 	repo-26_card 	0
scalar barabasi_100nodes_network.content_distribution 	repo-26_price 	0
scalar barabasi_100nodes_network.content_distribution 	repo-27_card 	0
scalar barabasi_100nodes_network.content_distribution 	repo-27_price 	0
scalar barabasi_100nodes_network.content_distribution 	repo-28_card 	0
scalar barabasi_100nodes_network.content_distribution 	repo-28_price 	0
scalar barabasi_100nodes_network.content_distribution 	repo-29_card 	0
scalar barabasi_100nodes_network.content_distribution 	repo-29_price 	0
scalar barabasi_100nodes_network.content_distribution 	repo-30_card 	0
scalar barabasi_100nodes_network.content_distribution 	repo-30_price 	0
scalar barabasi_100nodes_network.content_distribution 	repo-31_card 	0
scalar barabasi_100nodes_network.content_distribution 	repo-31_price 	0
scalar barabasi_100nodes_network.content_distribution 	repo-32_card 	0
scalar barabasi_100nodes_network.content_distribution 	repo-32_price 	0
scalar barabasi_100nodes_network.content_distribution 	repo-33_card 	0
scalar barabasi_100nodes_network.content_distribution 	repo-33_price 	0
scalar barabasi_100nodes_network.content_distribution 	repo-34_card 	0
scalar barabasi_100nodes_network.content_distribution 	repo-34_price 	0
scalar barabasi_100nodes_network.content_distribution 	repo-35_card 	0
scalar barabasi_100nodes_network.content_distribution 	repo-35_price 	0
scalar barabasi_100nodes_network.content_distribution 	repo-36_card 	0
scalar barabasi_100nodes_network.content_distribution 	repo-36_price 	0
scalar barabasi_100nodes_network.content_distribution 	repo-37_card 	0
scalar barabasi_100nodes_network.content_distribution 	repo-37_price 	0
scalar barabasi_100nodes_network.content_distribution 	repo-38_card 	0
scalar barabasi_100nodes_network.content_distribution 	repo-38_price 	0
scalar barabasi_100nodes_network.content_distribution 	repo-39_card 	0
scalar barabasi_100nodes_network.content_distribution 	repo-39_price 	0
scalar barabasi_100nodes_network.content_distribution 	repo-40_card 	0
scalar barabasi_100nodes_network.content_distribution 	repo-40_price 	0
scalar barabasi_100nodes_network.content_distribution 	repo-41_card 	0
scalar barabasi_100nodes_network.content_distribution 	repo-41_price 	0
scalar barabasi_100nodes_network.content_distribution 	repo-42_card 	0
scalar barabasi_100nodes_network.content_distribution 	repo-42_price 	0
scalar barabasi_100nodes_network.content_distribution 	repo-43_card 	0
scalar barabasi_100nodes_network.content_distribution 	repo-43_price 	0
scalar barabasi_100nodes_network.content_distribution 	repo-44_card 	0
scalar barabasi_100nodes_network.content_distribution 	repo-44_price 	0
scalar barabasi_100nodes_network.content_distribution 	repo-45_card 	0
scalar barabasi_100nodes_network.content_distribution 	repo-45_price 	0
scalar barabasi_100nodes_network.content_distribution 	repo-46_card 	0
scalar barabasi_100nodes_network.content_distribution 	repo-46_price 	0
scalar barabasi_100nodes_network.content_distribution 	repo-47_card 	0
scalar barabasi_100nodes_network.content_distribution 	repo-47_price 	0
scalar barabasi_100nodes_network.content_distribution 	repo-48_card 	0
scalar barabasi_100nodes_network.content_distribution 	repo-48_price 	0
scalar barabasi_100nodes_network.content_distribution 	repo-49_card 	0
scalar barabasi_100nodes_network.content_distribution 	repo-49_price 	0
scalar barabasi_100nodes_network.content_distribution 	repo-50_card 	0
scalar barabasi_100nodes_network.content_distribution 	repo-50_price 	0
scalar barabasi_100nodes_network.content_distribution 	repo-51_card 	0
scalar barabasi_100nodes_network.content_distribution 	repo-51_price 	0
scalar barabasi_100nodes_network.content_distribution 	repo-52_card 	0
scalar barabasi_100nodes_network.content_distribution 	repo-52_price 	0
scalar barabasi_100nodes_network.content_distribution 	repo-53_card 	0
scalar barabasi_100nodes_network.content_distribution 	repo-53_price 	0
scalar barabasi_100nodes_network.content_distribution 	repo-54_card 	0
scalar barabasi_100nodes_network.content_distribution 	repo-54_price 	0
scalar barabasi_100nodes_network.content_distribution 	repo-55_card 	0
scalar barabasi_100nodes_network.content_distribution 	repo-55_price 	0
scalar barabasi_100nodes_network.content_distribution 	repo-56_card 	0
scalar barabasi_100nodes_network.content_distribution 	repo-56_price 	0
scalar barabasi_100nodes_network.content_distribution 	repo-57_card 	0
scalar barabasi_100nodes_network.content_distribution 	repo-57_price 	0
scalar barabasi_100nodes_network.content_distribution 	repo-58_card 	0
scalar barabasi_100nodes_network.content_distribution 	repo-58_price 	0
scalar barabasi_100nodes_network.content_distribution 	repo-59_card 	0
scalar barabasi_100nodes_network.content_distribution 	repo-59_price 	0
scalar barabasi_100nodes_network.content_distribution 	repo-60_card 	0
scalar barabasi_100nodes_network.content_distribution 	repo-60_price 	0
scalar barabasi_100nodes_network.content_distribution 	repo-61_card 	0
scalar barabasi_100nodes_network.content_distribution 	repo-61_price 	0
scalar barabasi_100nodes_network.content_distribution 	repo-62_card 	0
scalar barabasi_100nodes_network.content_distribution 	repo-62_price 	0
scalar barabasi_100nodes_network.content_distribution 	repo-63_card 	0
scalar barabasi_100nodes_network.content_distribution 	repo-63_price 	0
scalar barabasi_100nodes_network.content_distribution 	repo-64_card 	0
scalar barabasi_100nodes_network.content_distribution 	repo-64_price 	0
scalar barabasi_100nodes_network.content_distribution 	repo-65_card 	0
scalar barabasi_100nodes_network.content_distribution 	repo-65_price 	0
scalar barabasi_100nodes_network.content_distribution 	repo-66_card 	0
scalar barabasi_100nodes_network.content_distribution 	repo-66_price 	0
scalar barabasi_100nodes_network.content_distribution 	repo-67_card 	0
scalar barabasi_100nodes_network.content_distribution 	repo-67_price 	0
scalar barabasi_100nodes_network.content_distribution 	repo-68_card 	0
scalar barabasi_100nodes_network.content_distribution 	repo-68_price 	0
scalar barabasi_100nodes_network.content_distribution 	repo-69_card 	0
scalar barabasi_100nodes_network.content_distribution 	repo-69_price 	0
scalar barabasi_100nodes_network.content_distribution 	repo-70_card 	0
scalar barabasi_100nodes_network.content_distribution 	repo-70_price 	0
scalar barabasi_100nodes_network.content_distribution 	repo-71_card 	0
scalar barabasi_100nodes_network.content_distribution 	repo-71_price 	0
scalar barabasi_100nodes_network.content_distribution 	repo-72_card 	0
scalar barabasi_100nodes_network.content_distribution 	repo-72_price 	0
scalar barabasi_100nodes_network.content_distribution 	repo-73_card 	0
scalar barabasi_100nodes_network.content_distribution 	repo-73_price 	0
scalar barabasi_100nodes_network.content_distribution 	repo-74_card 	0
scalar barabasi_100nodes_network.content_distribution 	repo-74_price 	0
scalar barabasi_100nodes_network.content_distribution 	repo-75_card 	0
scalar barabasi_100nodes_network.content_distribution 	repo-75_price 	0
scalar barabasi_100nodes_network.content_distribution 	repo-76_card 	0
scalar barabasi_100nodes_network.content_distribution 	repo-76_price 	0
scalar barabasi_100nodes_network.content_distribution 	repo-77_card 	0
scalar barabasi_100nodes_network.content_distribution 	repo-77_price 	0
scalar barabasi_100nodes_network.content_distribution 	repo-78_card 	0
scalar barabasi_100nodes_network.content_distribution 	repo-78_price 	0
scalar barabasi_100nodes_network.content_distribution 	repo-79_card 	0
scalar barabasi_100nodes_network.content_distribution 	repo-79_price 	0
scalar barabasi_100nodes_network.content_distribution 	repo-80_card 	0
scalar barabasi_100nodes_network.content_distribution 	repo-80_price 	0
scalar barabasi_100nodes_network.content_distribution 	repo-81_card 	0
scalar barabasi_100nodes_network.content_distribution 	repo-81_price 	0
scalar barabasi_100nodes_network.content_distribution 	repo-82_card 	0
scalar barabasi_100nodes_network.content_distribution 	repo-82_price 	0
scalar barabasi_100nodes_network.content_distribution 	repo-83_card 	0
scalar barabasi_100nodes_network.content_distribution 	repo-83_price 	0
scalar barabasi_100nodes_network.content_distribution 	repo-84_card 	0
scalar barabasi_100nodes_network.content_distribution 	repo-84_price 	0
scalar barabasi_100nodes_network.content_distribution 	repo-85_card 	0
scalar barabasi_100nodes_network.content_distribution 	repo-85_price 	0
scalar barabasi_100nodes_network.content_distribution 	repo-86_card 	0
scalar barabasi_100nodes_network.content_distribution 	repo-86_price 	0
scalar barabasi_100nodes_network.content_distribution 	repo-87_card 	0
scalar barabasi_100nodes_network.content_distribution 	repo-87_price 	0
scalar barabasi_100nodes_network.content_distribution 	repo-88_card 	0
scalar barabasi_100nodes_network.content_distribution 	repo-88_price 	0
scalar barabasi_100nodes_network.content_distribution 	repo-89_card 	0
scalar barabasi_100nodes_network.content_distribution 	repo-89_price 	0
scalar barabasi_100nodes_network.content_distribution 	repo-90_card 	0
scalar barabasi_100nodes_network.content_distribution 	repo-90_price 	0
scalar barabasi_100nodes_network.content_distribution 	repo-91_card 	0
scalar barabasi_100nodes_network.content_distribution 	repo-91_price 	0
scalar barabasi_100nodes_network.content_distribution 	repo-92_card 	0
scalar barabasi_100nodes_network.content_distribution 	repo-92_price 	0
scalar barabasi_100nodes_network.content_distribution 	repo-93_card 	0
scalar barabasi_100nodes_network.content_distribution 	repo-93_price 	0
scalar barabasi_100nodes_network.content_distribution 	repo-94_card 	0
scalar barabasi_100nodes_network.content_distribution 	repo-94_price 	0
scalar barabasi_100nodes_network.content_distribution 	repo-95_card 	0
scalar barabasi_100nodes_network.content_distribution 	repo-95_price 	0
scalar barabasi_100nodes_network.content_distribution 	repo-96_card 	0
scalar barabasi_100nodes_network.content_distribution 	repo-96_price 	0
scalar barabasi_100nodes_network.content_distribution 	repo-97_card 	0
scalar barabasi_100nodes_network.content_distribution 	repo-97_price 	0
scalar barabasi_100nodes_network.content_distribution 	repo-98_card 	0
scalar barabasi_100nodes_network.content_distribution 	repo-98_price 	0
scalar barabasi_100nodes_network.content_distribution 	repo-99_card 	0
scalar barabasi_100nodes_network.content_distribution 	repo-99_price 	0
scalar barabasi_100nodes_network.statistics 	p_hit 	0.385868466925
scalar barabasi_100nodes_network.statistics 	interests 	2194859.81
scalar barabasi_100nodes_network.statistics 	data 	1107060.68
scalar barabasi_100nodes_network.statistics 	hdistance 	1.2391319680268
scalar barabasi_100nodes_network.statistics 	avg_time 	0
scalar barabasi_100nodes_network.statistics 	downloads 	108779911
scalar barabasi_100nodes_network.statistics 	total_cost 	0
scalar barabasi_100nodes_network.statistics 	total_replicas 	100000000
scalar barabasi_100nodes_network.statistics 	"representations_downloaded 1:0:0:0:0:" 	0
scalar barabasi_100nodes_network.statistics 	"slots_per_representation 100:233:500:833:1167:" 	0
scalar barabasi_100nodes_network.statistics 	inner_hit 	0.7785694731815
scalar barabasi_100nodes_network.statistics 	execution_time 	16255
scalar barabasi_100nodes_network.node[0].core_layer 	interests[0] 	13731990
scalar barabasi_100nodes_network.node[0].core_layer 	data[0] 	8897782
scalar barabasi_100nodes_network.node[0].core_layer 	slots_sent[face$o[1]->client[0]] 	108754100
scalar barabasi_100nodes_network.node[0].core_layer 	slots_sent[face$o[2]->node[1]] 	33873300
scalar barabasi_100nodes_network.node[0].core_layer 	slots_sent[face$o[3]->node[2]] 	346173400
scalar barabasi_100nodes_network.node[0].core_layer 	slots_sent[face$o[4]->node[5]] 	148897200
scalar barabasi_100nodes_network.node[0].core_layer 	slots_sent[face$o[5]->node[10]] 	61746400
scalar barabasi_100nodes_network.node[0].core_layer 	slots_sent[face$o[6]->node[11]] 	33836400
scalar barabasi_100nodes_network.node[0].core_layer 	slots_sent[face$o[7]->node[15]] 	87474200
scalar barabasi_100nodes_network.node[0].core_layer 	slots_sent[face$o[8]->node[21]] 	116513100
scalar barabasi_100nodes_network.node[0].core_layer 	slots_sent[face$o[9]->node[22]] 	45214500
scalar barabasi_100nodes_network.node[0].core_layer 	slots_sent[face$o[10]->node[28]] 	45295100
scalar barabasi_100nodes_network.node[0].core_layer 	slots_sent[face$o[11]->node[37]] 	45170600
scalar barabasi_100nodes_network.node[0].core_layer 	slots_sent[face$o[12]->node[44]] 	45205400
scalar barabasi_100nodes_network.node[0].core_layer 	slots_sent[face$o[13]->node[58]] 	82385700
scalar barabasi_100nodes_network.node[0].core_layer 	slots_sent[face$o[14]->node[73]] 	82350700
scalar barabasi_100nodes_network.node[0].core_layer 	slots_sent[face$o[15]->node[74]] 	45249000
scalar barabasi_100nodes_network.node[0].core_layer 	slots_sent[face$o[16]->node[93]] 	45059900
scalar barabasi_100nodes_network.node[0].content_store 	p_hit[0] 	0.35203987186125
scalar barabasi_100nodes_network.node[0].content_store 	hits[0] 	4834208
scalar barabasi_100nodes_network.node[0].content_store 	misses[0] 	8897782
scalar barabasi_100nodes_network.node[0].content_store 	decision_yes[0] 	8897782
scalar barabasi_100nodes_network.node[0].content_store 	decision_no[0] 	0
scalar barabasi_100nodes_network.node[0].content_store 	decision_ratio[0] 	1
scalar barabasi_100nodes_network.node[1].core_layer 	interests[1] 	5234035
scalar barabasi_100nodes_network.node[1].core_layer 	repo_load[1] 	4457455
scalar barabasi_100nodes_network.node[1].core_layer 	data[1] 	338733
scalar barabasi_100nodes_network.node[1].core_layer 	slots_sent[face$o[1]->client[1]] 	108865200
scalar barabasi_100nodes_network.node[1].core_layer 	slots_sent[face$o[2]->node[0]] 	414538300
scalar barabasi_100nodes_network.node[1].content_store 	p_hit[1] 	0.083653815841889
scalar barabasi_100nodes_network.node[1].content_store 	hits[1] 	437847
scalar barabasi_100nodes_network.node[1].content_store 	misses[1] 	4796188
scalar barabasi_100nodes_network.node[1].content_store 	decision_yes[1] 	338733
scalar barabasi_100nodes_network.node[1].content_store 	decision_no[1] 	4457455
scalar barabasi_100nodes_network.node[1].content_store 	decision_ratio[1] 	0.070625463388841
scalar barabasi_100nodes_network.node[2].core_layer 	interests[2] 	28107115
scalar barabasi_100nodes_network.node[2].core_layer 	data[2] 	16966241
scalar barabasi_100nodes_network.node[2].core_layer 	slots_sent[face$o[1]->client[2]] 	108650600
scalar barabasi_100nodes_network.node[2].core_layer 	slots_sent[face$o[2]->node[0]] 	475239900
scalar barabasi_100nodes_network.node[2].core_layer 	slots_sent[face$o[3]->node[3]] 	82380300
scalar barabasi_100nodes_network.node[2].core_layer 	slots_sent[face$o[4]->node[4]] 	209275100
scalar barabasi_100nodes_network.node[2].core_layer 	slots_sent[face$o[5]->node[6]] 	33970900
scalar barabasi_100nodes_network.node[2].core_layer 	slots_sent[face$o[6]->node[7]] 	204408600
scalar barabasi_100nodes_network.node[2].core_layer 	slots_sent[face$o[7]->node[8]] 	252234300
scalar barabasi_100nodes_network.node[2].core_layer 	slots_sent[face$o[8]->node[13]] 	127233000
scalar barabasi_100nodes_network.node[2].core_layer 	slots_sent[face$o[9]->node[16]] 	231160100
scalar barabasi_100nodes_network.node[2].core_layer 	slots_sent[face$o[10]->node[18]] 	148932500
scalar barabasi_100nodes_network.node[2].core_layer 	slots_sent[face$o[11]->node[25]] 	82509800
scalar barabasi_100nodes_network.node[2].core_layer 	slots_sent[face$o[12]->node[26]] 	148840300
scalar barabasi_100nodes_network.node[2].core_layer 	slots_sent[face$o[13]->node[29]] 	45237500
scalar barabasi_100nodes_network.node[2].core_layer 	slots_sent[face$o[14]->node[32]] 	116684100
scalar barabasi_100nodes_network.node[2].core_layer 	slots_sent[face$o[15]->node[33]] 	45139100
scalar barabasi_100nodes_network.node[2].core_layer 	slots_sent[face$o[16]->node[34]] 	45127800
scalar barabasi_100nodes_network.node[2].core_layer 	slots_sent[face$o[17]->node[36]] 	82497000
scalar barabasi_100nodes_network.node[2].core_layer 	slots_sent[face$o[18]->node[41]] 	118924300
scalar barabasi_100nodes_network.node[2].core_layer 	slots_sent[face$o[19]->node[45]] 	45175400
scalar barabasi_100nodes_network.node[2].core_layer 	slots_sent[face$o[20]->node[59]] 	45203100
scalar barabasi_100nodes_network.node[2].core_layer 	slots_sent[face$o[21]->node[62]] 	116550400
scalar barabasi_100nodes_network.node[2].core_layer 	slots_sent[face$o[22]->node[79]] 	45337400
scalar barabasi_100nodes_network.node[2].content_store 	p_hit[2] 	0.39637202181725
scalar barabasi_100nodes_network.node[2].content_store 	hits[2] 	11140874
scalar barabasi_100nodes_network.node[2].content_store 	misses[2] 	16966241
scalar barabasi_100nodes_network.node[2].content_store 	decision_yes[2] 	16966241
scalar barabasi_100nodes_network.node[2].content_store 	decision_no[2] 	0
scalar barabasi_100nodes_network.node[2].content_store 	decision_ratio[2] 	1
scalar barabasi_100nodes_network.node[3].core_layer 	interests[3] 	1539502
scalar barabasi_100nodes_network.node[3].core_layer 	data[3] 	823802
scalar barabasi_100nodes_network.node[3].core_layer 	slots_sent[face$o[1]->client[3]] 	108733100
scalar barabasi_100nodes_network.node[3].core_layer 	slots_sent[face$o[2]->node[2]] 	0
scalar barabasi_100nodes_network.node[3].core_layer 	slots_sent[face$o[3]->node[52]] 	45217000
scalar barabasi_100nodes_network.node[3].content_store 	p_hit[3] 	0.46488994493024
scalar barabasi_100nodes_network.node[3].content_store 	hits[3] 	715699
scalar barabasi_100nodes_network.node[3].content_store 	misses[3] 	823803
scalar barabasi_100nodes_network.node[3].content_store 	decision_yes[3] 	823802
scalar barabasi_100nodes_network.node[3].content_store 	decision_no[3] 	0
scalar barabasi_100nodes_network.node[3].content_store 	decision_ratio[3] 	1
scalar barabasi_100nodes_network.node[4].core_layer 	interests[4] 	3184810
scalar barabasi_100nodes_network.node[4].core_layer 	data[4] 	2092751
scalar barabasi_100nodes_network.node[4].core_layer 	slots_sent[face$o[1]->client[4]] 	108684300
scalar barabasi_100nodes_network.node[4].core_layer 	slots_sent[face$o[2]->node[2]] 	0
scalar barabasi_100nodes_network.node[4].core_layer 	slots_sent[face$o[3]->node[27]] 	82250000
scalar barabasi_100nodes_network.node[4].core_layer 	slots_sent[face$o[4]->node[30]] 	82446300
scalar barabasi_100nodes_network.node[4].core_layer 	slots_sent[face$o[5]->node[85]] 	45100400
scalar barabasi_100nodes_network.node[4].content_store 	p_hit[4] 	0.34289612253164
scalar barabasi_100nodes_network.node[4].content_store 	hits[4] 	1092059
scalar barabasi_100nodes_network.node[4].content_store 	misses[4] 	2092751
scalar barabasi_100nodes_network.node[4].content_store 	decision_yes[4] 	2092751
scalar barabasi_100nodes_network.node[4].content_store 	decision_no[4] 	0
scalar barabasi_100nodes_network.node[4].content_store 	decision_ratio[4] 	1
scalar barabasi_100nodes_network.node[5].core_layer 	interests[5] 	2362467
scalar barabasi_100nodes_network.node[5].core_layer 	data[5] 	1488972
scalar barabasi_100nodes_network.node[5].core_layer 	slots_sent[face$o[1]->client[5]] 	108606900
scalar barabasi_100nodes_network.node[5].core_layer 	slots_sent[face$o[2]->node[0]] 	0
scalar barabasi_100nodes_network.node[5].core_layer 	slots_sent[face$o[3]->node[9]] 	45230500
scalar barabasi_100nodes_network.node[5].core_layer 	slots_sent[face$o[4]->node[35]] 	82409300
scalar barabasi_100nodes_network.node[5].content_store 	p_hit[5] 	0.36973849793457
scalar barabasi_100nodes_network.node[5].content_store 	hits[5] 	873495
scalar barabasi_100nodes_network.node[5].content_store 	misses[5] 	1488972
scalar barabasi_100nodes_network.node[5].content_store 	decision_yes[5] 	1488972
scalar barabasi_100nodes_network.node[5].content_store 	decision_no[5] 	0
scalar barabasi_100nodes_network.node[5].content_store 	decision_ratio[5] 	1
scalar barabasi_100nodes_network.node[6].core_layer 	interests[6] 	1088246
scalar barabasi_100nodes_network.node[6].core_layer 	repo_load[6] 	252681
scalar barabasi_100nodes_network.node[6].core_layer 	data[6] 	339709
scalar barabasi_100nodes_network.node[6].core_layer 	slots_sent[face$o[1]->client[6]] 	108824600
scalar barabasi_100nodes_network.node[6].core_layer 	slots_sent[face$o[2]->node[2]] 	0
scalar barabasi_100nodes_network.node[6].content_store 	p_hit[6] 	0.45564697687839
scalar barabasi_100nodes_network.node[6].content_store 	hits[6] 	495856
scalar barabasi_100nodes_network.node[6].content_store 	misses[6] 	592390
scalar barabasi_100nodes_network.node[6].content_store 	decision_yes[6] 	339709
scalar barabasi_100nodes_network.node[6].content_store 	decision_no[6] 	252681
scalar barabasi_100nodes_network.node[6].content_store 	decision_ratio[6] 	0.57345498742383
scalar barabasi_100nodes_network.node[7].core_layer 	interests[7] 	9483243
scalar barabasi_100nodes_network.node[7].core_layer 	repo_load[7] 	1506223
scalar barabasi_100nodes_network.node[7].core_layer 	data[7] 	6372790
scalar barabasi_100nodes_network.node[7].core_layer 	slots_sent[face$o[1]->client[7]] 	108782200
scalar barabasi_100nodes_network.node[7].core_layer 	slots_sent[face$o[2]->node[2]] 	436610500
scalar barabasi_100nodes_network.node[7].core_layer 	slots_sent[face$o[3]->node[23]] 	171560800
scalar barabasi_100nodes_network.node[7].core_layer 	slots_sent[face$o[4]->node[31]] 	141029000
scalar barabasi_100nodes_network.node[7].core_layer 	slots_sent[face$o[5]->node[49]] 	45156700
scalar barabasi_100nodes_network.node[7].core_layer 	slots_sent[face$o[6]->node[90]] 	45185100
scalar barabasi_100nodes_network.node[7].content_store 	p_hit[7] 	0.16916470452144
scalar barabasi_100nodes_network.node[7].content_store 	hits[7] 	1604230
scalar barabasi_100nodes_network.node[7].content_store 	misses[7] 	7879013
scalar barabasi_100nodes_network.node[7].content_store 	decision_yes[7] 	6372790
scalar barabasi_100nodes_network.node[7].content_store 	decision_no[7] 	1506223
scalar barabasi_100nodes_network.node[7].content_store 	decision_ratio[7] 	0.8088310045941
scalar barabasi_100nodes_network.node[8].core_layer 	interests[8] 	3942736
scalar barabasi_100nodes_network.node[8].core_layer 	data[8] 	2522343
scalar barabasi_100nodes_network.node[8].core_layer 	slots_sent[face$o[1]->client[8]] 	108595800
scalar barabasi_100nodes_network.node[8].core_layer 	slots_sent[face$o[2]->node[2]] 	0
scalar barabasi_100nodes_network.node[8].core_layer 	slots_sent[face$o[3]->node[12]] 	45165100
scalar barabasi_100nodes_network.node[8].core_layer 	slots_sent[face$o[4]->node[14]] 	33785800
scalar barabasi_100nodes_network.node[8].core_layer 	slots_sent[face$o[5]->node[17]] 	33897400
scalar barabasi_100nodes_network.node[8].core_layer 	slots_sent[face$o[6]->node[39]] 	82506900
scalar barabasi_100nodes_network.node[8].core_layer 	slots_sent[face$o[7]->node[61]] 	45240800
scalar barabasi_100nodes_network.node[8].core_layer 	slots_sent[face$o[8]->node[66]] 	45081800
scalar barabasi_100nodes_network.node[8].content_store 	p_hit[8] 	0.36025567017421
scalar barabasi_100nodes_network.node[8].content_store 	hits[8] 	1420393
scalar barabasi_100nodes_network.node[8].content_store 	misses[8] 	2522343
scalar barabasi_100nodes_network.node[8].content_store 	decision_yes[8] 	2522343
scalar barabasi_100nodes_network.node[8].content_store 	decision_no[8] 	0
scalar barabasi_100nodes_network.node[8].content_store 	decision_ratio[8] 	1
scalar barabasi_100nodes_network.node[9].core_layer 	interests[9] 	1088591
scalar barabasi_100nodes_network.node[9].core_layer 	data[9] 	452305
scalar barabasi_100nodes_network.node[9].core_layer 	slots_sent[face$o[1]->client[9]] 	108859100
scalar barabasi_100nodes_network.node[9].core_layer 	slots_sent[face$o[2]->node[5]] 	0
scalar barabasi_100nodes_network.node[9].content_store 	p_hit[9] 	0.58450418936038
scalar barabasi_100nodes_network.node[9].content_store 	hits[9] 	636286
scalar barabasi_100nodes_network.node[9].content_store 	misses[9] 	452305
scalar barabasi_100nodes_network.node[9].content_store 	decision_yes[9] 	452305
scalar barabasi_100nodes_network.node[9].content_store 	decision_no[9] 	0
scalar barabasi_100nodes_network.node[9].content_store 	decision_ratio[9] 	1
scalar barabasi_100nodes_network.node[10].core_layer 	interests[10] 	1539668
scalar barabasi_100nodes_network.node[10].core_layer 	repo_load[10] 	333713
scalar barabasi_100nodes_network.node[10].core_layer 	data[10] 	617464
scalar barabasi_100nodes_network.node[10].core_layer 	slots_sent[face$o[1]->client[10]] 	108916500
scalar barabasi_100nodes_network.node[10].core_layer 	slots_sent[face$o[2]->node[0]] 	0
scalar barabasi_100nodes_network.node[10].core_layer 	slots_sent[face$o[3]->node[71]] 	45050300
scalar barabasi_100nodes_network.node[10].content_store 	p_hit[10] 	0.38221941353591
scalar barabasi_100nodes_network.node[10].content_store 	hits[10] 	588491
scalar barabasi_100nodes_network.node[10].content_store 	misses[10] 	951177
scalar barabasi_100nodes_network.node[10].content_store 	decision_yes[10] 	617464
scalar barabasi_100nodes_network.node[10].content_store 	decision_no[10] 	333713
scalar barabasi_100nodes_network.node[10].content_store 	decision_ratio[10] 	0.64915783287443
scalar barabasi_100nodes_network.node[11].core_layer 	interests[11] 	1088824
scalar barabasi_100nodes_network.node[11].core_layer 	repo_load[11] 	311478
scalar barabasi_100nodes_network.node[11].core_layer 	data[11] 	338364
scalar barabasi_100nodes_network.node[11].core_layer 	slots_sent[face$o[1]->client[11]] 	108882400
scalar barabasi_100nodes_network.node[11].core_layer 	slots_sent[face$o[2]->node[0]] 	0
scalar barabasi_100nodes_network.node[11].content_store 	p_hit[11] 	0.40317076038001
scalar barabasi_100nodes_network.node[11].content_store 	hits[11] 	438982
scalar barabasi_100nodes_network.node[11].content_store 	misses[11] 	649842
scalar barabasi_100nodes_network.node[11].content_store 	decision_yes[11] 	338364
scalar barabasi_100nodes_network.node[11].content_store 	decision_no[11] 	311478
scalar barabasi_100nodes_network.node[11].content_store 	decision_ratio[11] 	0.52068656688857
scalar barabasi_100nodes_network.node[12].core_layer 	interests[12] 	1087144
scalar barabasi_100nodes_network.node[12].core_layer 	data[12] 	451651
scalar barabasi_100nodes_network.node[12].core_layer 	slots_sent[face$o[1]->client[12]] 	108714400
scalar barabasi_100nodes_network.node[12].core_layer 	slots_sent[face$o[2]->node[8]] 	0
scalar barabasi_100nodes_network.node[12].content_store 	p_hit[12] 	0.58455273634404
scalar barabasi_100nodes_network.node[12].content_store 	hits[12] 	635493
scalar barabasi_100nodes_network.node[12].content_store 	misses[12] 	451651
scalar barabasi_100nodes_network.node[12].content_store 	decision_yes[12] 	451651
scalar barabasi_100nodes_network.node[12].content_store 	decision_no[12] 	0
scalar barabasi_100nodes_network.node[12].content_store 	decision_ratio[12] 	1
scalar barabasi_100nodes_network.node[13].core_layer 	interests[13] 	2620212
scalar barabasi_100nodes_network.node[13].core_layer 	repo_load[13] 	656548
scalar barabasi_100nodes_network.node[13].core_layer 	data[13] 	1272330
scalar barabasi_100nodes_network.node[13].core_layer 	slots_sent[face$o[1]->client[13]] 	108755900
scalar barabasi_100nodes_network.node[13].core_layer 	slots_sent[face$o[2]->node[2]] 	0
scalar barabasi_100nodes_network.node[13].core_layer 	slots_sent[face$o[3]->node[67]] 	45140600
scalar barabasi_100nodes_network.node[13].core_layer 	slots_sent[face$o[4]->node[78]] 	108124700
scalar barabasi_100nodes_network.node[13].content_store 	p_hit[13] 	0.2638465895126
scalar barabasi_100nodes_network.node[13].content_store 	hits[13] 	691334
scalar barabasi_100nodes_network.node[13].content_store 	misses[13] 	1928878
scalar barabasi_100nodes_network.node[13].content_store 	decision_yes[13] 	1272330
scalar barabasi_100nodes_network.node[13].content_store 	decision_no[13] 	656548
scalar barabasi_100nodes_network.node[13].content_store 	decision_ratio[13] 	0.65962181122912
scalar barabasi_100nodes_network.node[14].core_layer 	interests[14] 	1087886
scalar barabasi_100nodes_network.node[14].core_layer 	repo_load[14] 	302163
scalar barabasi_100nodes_network.node[14].core_layer 	data[14] 	337858
scalar barabasi_100nodes_network.node[14].core_layer 	slots_sent[face$o[1]->client[14]] 	108788600
scalar barabasi_100nodes_network.node[14].core_layer 	slots_sent[face$o[2]->node[8]] 	0
scalar barabasi_100nodes_network.node[14].content_store 	p_hit[14] 	0.41168376098231
scalar barabasi_100nodes_network.node[14].content_store 	hits[14] 	447865
scalar barabasi_100nodes_network.node[14].content_store 	misses[14] 	640021
scalar barabasi_100nodes_network.node[14].content_store 	decision_yes[14] 	337858
scalar barabasi_100nodes_network.node[14].content_store 	decision_no[14] 	302163
scalar barabasi_100nodes_network.node[14].content_store 	decision_ratio[14] 	0.52788580374706
scalar barabasi_100nodes_network.node[15].core_layer 	interests[15] 	1990362
scalar barabasi_100nodes_network.node[15].core_layer 	repo_load[15] 	527238
scalar barabasi_100nodes_network.node[15].core_layer 	data[15] 	874742
scalar barabasi_100nodes_network.node[15].core_layer 	slots_sent[face$o[1]->client[15]] 	108789900
scalar barabasi_100nodes_network.node[15].core_layer 	slots_sent[face$o[2]->node[0]] 	0
scalar barabasi_100nodes_network.node[15].core_layer 	slots_sent[face$o[3]->node[40]] 	45142500
scalar barabasi_100nodes_network.node[15].core_layer 	slots_sent[face$o[4]->node[56]] 	45103800
scalar barabasi_100nodes_network.node[15].content_store 	p_hit[15] 	0.29561557143876
scalar barabasi_100nodes_network.node[15].content_store 	hits[15] 	588382
scalar barabasi_100nodes_network.node[15].content_store 	misses[15] 	1401980
scalar barabasi_100nodes_network.node[15].content_store 	decision_yes[15] 	874742
scalar barabasi_100nodes_network.node[15].content_store 	decision_no[15] 	527238
scalar barabasi_100nodes_network.node[15].content_store 	decision_ratio[15] 	0.62393329434086
scalar barabasi_100nodes_network.node[16].core_layer 	interests[16] 	3260031
scalar barabasi_100nodes_network.node[16].core_layer 	data[16] 	2311601
scalar barabasi_100nodes_network.node[16].core_layer 	slots_sent[face$o[1]->client[16]] 	108610700
scalar barabasi_100nodes_network.node[16].core_layer 	slots_sent[face$o[2]->node[2]] 	0
scalar barabasi_100nodes_network.node[16].core_layer 	slots_sent[face$o[3]->node[19]] 	172194500
scalar barabasi_100nodes_network.node[16].core_layer 	slots_sent[face$o[4]->node[20]] 	45197900
scalar barabasi_100nodes_network.node[16].content_store 	p_hit[16] 	0.29092668137205
scalar barabasi_100nodes_network.node[16].content_store 	hits[16] 	948430
scalar barabasi_100nodes_network.node[16].content_store 	misses[16] 	2311601
scalar barabasi_100nodes_network.node[16].content_store 	decision_yes[16] 	2311601
scalar barabasi_100nodes_network.node[16].content_store 	decision_no[16] 	0
scalar barabasi_100nodes_network.node[16].content_store 	decision_ratio[16] 	1
scalar barabasi_100nodes_network.node[17].core_layer 	interests[17] 	1089317
scalar barabasi_100nodes_network.node[17].core_layer 	repo_load[17] 	253955
scalar barabasi_100nodes_network.node[17].core_layer 	data[17] 	338974
scalar barabasi_100nodes_network.node[17].core_layer 	slots_sent[face$o[1]->client[17]] 	108931700
scalar barabasi_100nodes_network.node[17].core_layer 	slots_sent[face$o[2]->node[8]] 	0
scalar barabasi_100nodes_network.node[17].content_store 	p_hit[17] 	0.45568737107747
scalar barabasi_100nodes_network.node[17].content_store 	hits[17] 	496388
scalar barabasi_100nodes_network.node[17].content_store 	misses[17] 	592929
scalar barabasi_100nodes_network.node[17].content_store 	decision_yes[17] 	338974
scalar barabasi_100nodes_network.node[17].content_store 	decision_no[17] 	253955
scalar barabasi_100nodes_network.node[17].content_store 	decision_ratio[17] 	0.57169408141616
scalar barabasi_100nodes_network.node[18].core_layer 	interests[18] 	2442448
scalar barabasi_100nodes_network.node[18].core_layer 	data[18] 	1489325
scalar barabasi_100nodes_network.node[18].core_layer 	slots_sent[face$o[1]->client[18]] 	108741600
scalar barabasi_100nodes_network.node[18].core_layer 	slots_sent[face$o[2]->node[2]] 	0
scalar barabasi_100nodes_network.node[18].core_layer 	slots_sent[face$o[3]->node[53]] 	45163000
scalar barabasi_100nodes_network.node[18].core_layer 	slots_sent[face$o[4]->node[68]] 	45172700
scalar barabasi_100nodes_network.node[18].core_layer 	slots_sent[face$o[5]->node[72]] 	45167500
scalar barabasi_100nodes_network.node[18].content_store 	p_hit[18] 	0.39023266820829
scalar barabasi_100nodes_network.node[18].content_store 	hits[18] 	953123
scalar barabasi_100nodes_network.node[18].content_store 	misses[18] 	1489325
scalar barabasi_100nodes_network.node[18].content_store 	decision_yes[18] 	1489325
scalar barabasi_100nodes_network.node[18].content_store 	decision_no[18] 	0
scalar barabasi_100nodes_network.node[18].content_store 	decision_ratio[18] 	1
scalar barabasi_100nodes_network.node[19].core_layer 	interests[19] 	2782277
scalar barabasi_100nodes_network.node[19].core_layer 	data[19] 	1721945
scalar barabasi_100nodes_network.node[19].core_layer 	slots_sent[face$o[1]->client[19]] 	108800200
scalar barabasi_100nodes_network.node[19].core_layer 	slots_sent[face$o[2]->node[16]] 	0
scalar barabasi_100nodes_network.node[19].core_layer 	slots_sent[face$o[3]->node[63]] 	45141300
scalar barabasi_100nodes_network.node[19].core_layer 	slots_sent[face$o[4]->node[70]] 	45211500
scalar barabasi_100nodes_network.node[19].core_layer 	slots_sent[face$o[5]->node[80]] 	45143000
scalar barabasi_100nodes_network.node[19].core_layer 	slots_sent[face$o[6]->node[89]] 	33931700
scalar barabasi_100nodes_network.node[19].content_store 	p_hit[19] 	0.38110224107808
scalar barabasi_100nodes_network.node[19].content_store 	hits[19] 	1060332
scalar barabasi_100nodes_network.node[19].content_store 	misses[19] 	1721945
scalar barabasi_100nodes_network.node[19].content_store 	decision_yes[19] 	1721945
scalar barabasi_100nodes_network.node[19].content_store 	decision_no[19] 	0
scalar barabasi_100nodes_network.node[19].content_store 	decision_ratio[19] 	1
scalar barabasi_100nodes_network.node[20].core_layer 	interests[20] 	1087258
scalar barabasi_100nodes_network.node[20].core_layer 	data[20] 	451979
scalar barabasi_100nodes_network.node[20].core_layer 	slots_sent[face$o[1]->client[20]] 	108725800
scalar barabasi_100nodes_network.node[20].core_layer 	slots_sent[face$o[2]->node[16]] 	0
scalar barabasi_100nodes_network.node[20].content_store 	p_hit[20] 	0.58429462004418
scalar barabasi_100nodes_network.node[20].content_store 	hits[20] 	635279
scalar barabasi_100nodes_network.node[20].content_store 	misses[20] 	451979
scalar barabasi_100nodes_network.node[20].content_store 	decision_yes[20] 	451979
scalar barabasi_100nodes_network.node[20].content_store 	decision_no[20] 	0
scalar barabasi_100nodes_network.node[20].content_store 	decision_ratio[20] 	1
scalar barabasi_100nodes_network.node[21].core_layer 	interests[21] 	1990333
scalar barabasi_100nodes_network.node[21].core_layer 	data[21] 	1165131
scalar barabasi_100nodes_network.node[21].core_layer 	slots_sent[face$o[1]->client[21]] 	108789200
scalar barabasi_100nodes_network.node[21].core_layer 	slots_sent[face$o[2]->node[0]] 	0
scalar barabasi_100nodes_network.node[21].core_layer 	slots_sent[face$o[3]->node[24]] 	45136900
scalar barabasi_100nodes_network.node[21].core_layer 	slots_sent[face$o[4]->node[57]] 	45107200
scalar barabasi_100nodes_network.node[21].content_store 	p_hit[21] 	0.4146049932348
scalar barabasi_100nodes_network.node[21].content_store 	hits[21] 	825202
scalar barabasi_100nodes_network.node[21].content_store 	misses[21] 	1165131
scalar barabasi_100nodes_network.node[21].content_store 	decision_yes[21] 	1165131
scalar barabasi_100nodes_network.node[21].content_store 	decision_no[21] 	0
scalar barabasi_100nodes_network.node[21].content_store 	decision_ratio[21] 	1
scalar barabasi_100nodes_network.node[22].core_layer 	interests[22] 	1089460
scalar barabasi_100nodes_network.node[22].core_layer 	data[22] 	452145
scalar barabasi_100nodes_network.node[22].core_layer 	slots_sent[face$o[1]->client[22]] 	108946000
scalar barabasi_100nodes_network.node[22].core_layer 	slots_sent[face$o[2]->node[0]] 	0
scalar barabasi_100nodes_network.node[22].content_store 	p_hit[22] 	0.58498246837883
scalar barabasi_100nodes_network.node[22].content_store 	hits[22] 	637315
scalar barabasi_100nodes_network.node[22].content_store 	misses[22] 	452145
scalar barabasi_100nodes_network.node[22].content_store 	decision_yes[22] 	452145
scalar barabasi_100nodes_network.node[22].content_store 	decision_no[22] 	0
scalar barabasi_100nodes_network.node[22].content_store 	decision_ratio[22] 	1
scalar barabasi_100nodes_network.node[23].core_layer 	interests[23] 	7727153
scalar barabasi_100nodes_network.node[23].core_layer 	data[23] 	6218093
scalar barabasi_100nodes_network.node[23].core_layer 	slots_sent[face$o[1]->client[23]] 	108705400
scalar barabasi_100nodes_network.node[23].core_layer 	slots_sent[face$o[2]->node[7]] 	432870400
scalar barabasi_100nodes_network.node[23].core_layer 	slots_sent[face$o[3]->node[46]] 	61780500
scalar barabasi_100nodes_network.node[23].core_layer 	slots_sent[face$o[4]->node[47]] 	33961900
scalar barabasi_100nodes_network.node[23].core_layer 	slots_sent[face$o[5]->node[51]] 	45119100
scalar barabasi_100nodes_network.node[23].core_layer 	slots_sent[face$o[6]->node[83]] 	45242100
scalar barabasi_100nodes_network.node[23].core_layer 	slots_sent[face$o[7]->node[86]] 	45035900
scalar barabasi_100nodes_network.node[23].content_store 	p_hit[23] 	0.195293143542
scalar barabasi_100nodes_network.node[23].content_store 	hits[23] 	1509060
scalar barabasi_100nodes_network.node[23].content_store 	misses[23] 	6218093
scalar barabasi_100nodes_network.node[23].content_store 	decision_yes[23] 	6218093
scalar barabasi_100nodes_network.node[23].content_store 	decision_no[23] 	0
scalar barabasi_100nodes_network.node[23].content_store 	decision_ratio[23] 	1
scalar barabasi_100nodes_network.node[24].core_layer 	interests[24] 	1086807
scalar barabasi_100nodes_network.node[24].core_layer 	data[24] 	451369
scalar barabasi_100nodes_network.node[24].core_layer 	slots_sent[face$o[1]->client[24]] 	108680700
scalar barabasi_100nodes_network.node[24].core_layer 	slots_sent[face$o[2]->node[21]] 	0
scalar barabasi_100nodes_network.node[24].content_store 	p_hit[24] 	0.584683389047
scalar barabasi_100nodes_network.node[24].content_store 	hits[24] 	635438
scalar barabasi_100nodes_network.node[24].content_store 	misses[24] 	451369
scalar barabasi_100nodes_network.node[24].content_store 	decision_yes[24] 	451369
scalar barabasi_100nodes_network.node[24].content_store 	decision_no[24] 	0
scalar barabasi_100nodes_network.node[24].content_store 	decision_ratio[24] 	1
scalar barabasi_100nodes_network.node[25].core_layer 	interests[25] 	1540487
scalar barabasi_100nodes_network.node[25].core_layer 	data[25] 	825098
scalar barabasi_100nodes_network.node[25].core_layer 	slots_sent[face$o[1]->client[25]] 	108835400
scalar barabasi_100nodes_network.node[25].core_layer 	slots_sent[face$o[2]->node[2]] 	0
scalar barabasi_100nodes_network.node[25].core_layer 	slots_sent[face$o[3]->node[38]] 	45213300
scalar barabasi_100nodes_network.node[25].content_store 	p_hit[25] 	0.46439145542935
scalar barabasi_100nodes_network.node[25].content_store 	hits[25] 	715389
scalar barabasi_100nodes_network.node[25].content_store 	misses[25] 	825098
scalar barabasi_100nodes_network.node[25].content_store 	decision_yes[25] 	825098
scalar barabasi_100nodes_network.node[25].content_store 	decision_no[25] 	0
scalar barabasi_100nodes_network.node[25].content_store 	decision_ratio[25] 	1
scalar barabasi_100nodes_network.node[26].core_layer 	interests[26] 	2363349
scalar barabasi_100nodes_network.node[26].core_layer 	data[26] 	1488403
scalar barabasi_100nodes_network.node[26].core_layer 	slots_sent[face$o[1]->client[26]] 	108778100
scalar barabasi_100nodes_network.node[26].core_layer 	slots_sent[face$o[2]->node[2]] 	0
scalar barabasi_100nodes_network.node[26].core_layer 	slots_sent[face$o[3]->node[77]] 	82343000
scalar barabasi_100nodes_network.node[26].core_layer 	slots_sent[face$o[4]->node[91]] 	45213800
scalar barabasi_100nodes_network.node[26].content_store 	p_hit[26] 	0.37021447107473
scalar barabasi_100nodes_network.node[26].content_store 	hits[26] 	874946
scalar barabasi_100nodes_network.node[26].content_store 	misses[26] 	1488403
scalar barabasi_100nodes_network.node[26].content_store 	decision_yes[26] 	1488403
scalar barabasi_100nodes_network.node[26].content_store 	decision_no[26] 	0
scalar barabasi_100nodes_network.node[26].content_store 	decision_ratio[26] 	1
scalar barabasi_100nodes_network.node[27].core_layer 	interests[27] 	1538216
scalar barabasi_100nodes_network.node[27].core_layer 	data[27] 	822500
scalar barabasi_100nodes_network.node[27].core_layer 	slots_sent[face$o[1]->client[27]] 	108721100
scalar barabasi_100nodes_network.node[27].core_layer 	slots_sent[face$o[2]->node[4]] 	0
scalar barabasi_100nodes_network.node[27].core_layer 	slots_sent[face$o[3]->node[99]] 	45100500
scalar barabasi_100nodes_network.node[27].content_store 	p_hit[27] 	0.46528966022977
scalar barabasi_100nodes_network.node[27].content_store 	hits[27] 	715716
scalar barabasi_100nodes_network.node[27].content_store 	misses[27] 	822500
scalar barabasi_100nodes_network.node[27].content_store 	decision_yes[27] 	822500
scalar barabasi_100nodes_network.node[27].content_store 	decision_no[27] 	0
scalar barabasi_100nodes_network.node[27].content_store 	decision_ratio[27] 	1
scalar barabasi_100nodes_network.node[28].core_layer 	interests[28] 	1090324
scalar barabasi_100nodes_network.node[28].core_layer 	data[28] 	452951
scalar barabasi_100nodes_network.node[28].core_layer 	slots_sent[face$o[1]->client[28]] 	109032400
scalar barabasi_100nodes_network.node[28].core_layer 	slots_sent[face$o[2]->node[0]] 	0
scalar barabasi_100nodes_network.node[28].content_store 	p_hit[28] 	0.58457210884104
scalar barabasi_100nodes_network.node[28].content_store 	hits[28] 	637373
scalar barabasi_100nodes_network.node[28].content_store 	misses[28] 	452951
scalar barabasi_100nodes_network.node[28].content_store 	decision_yes[28] 	452951
scalar barabasi_100nodes_network.node[28].content_store 	decision_no[28] 	0
scalar barabasi_100nodes_network.node[28].content_store 	decision_ratio[28] 	1
scalar barabasi_100nodes_network.node[29].core_layer 	interests[29] 	1089496
scalar barabasi_100nodes_network.node[29].core_layer 	data[29] 	452375
scalar barabasi_100nodes_network.node[29].core_layer 	slots_sent[face$o[1]->client[29]] 	108949600
scalar barabasi_100nodes_network.node[29].core_layer 	slots_sent[face$o[2]->node[2]] 	0
scalar barabasi_100nodes_network.node[29].content_store 	p_hit[29] 	0.58478507493373
scalar barabasi_100nodes_network.node[29].content_store 	hits[29] 	637121
scalar barabasi_100nodes_network.node[29].content_store 	misses[29] 	452375
scalar barabasi_100nodes_network.node[29].content_store 	decision_yes[29] 	452375
scalar barabasi_100nodes_network.node[29].content_store 	decision_no[29] 	0
scalar barabasi_100nodes_network.node[29].content_store 	decision_ratio[29] 	1
scalar barabasi_100nodes_network.node[30].core_layer 	interests[30] 	1539776
scalar barabasi_100nodes_network.node[30].core_layer 	data[30] 	824463
scalar barabasi_100nodes_network.node[30].core_layer 	slots_sent[face$o[1]->client[30]] 	108743700
scalar barabasi_100nodes_network.node[30].core_layer 	slots_sent[face$o[2]->node[4]] 	0
scalar barabasi_100nodes_network.node[30].core_layer 	slots_sent[face$o[3]->node[88]] 	45233900
scalar barabasi_100nodes_network.node[30].content_store 	p_hit[30] 	0.46455653289829
scalar barabasi_100nodes_network.node[30].content_store 	hits[30] 	715313
scalar barabasi_100nodes_network.node[30].content_store 	misses[30] 	824463
scalar barabasi_100nodes_network.node[30].content_store 	decision_yes[30] 	824463
scalar barabasi_100nodes_network.node[30].content_store 	decision_no[30] 	0
scalar barabasi_100nodes_network.node[30].content_store 	decision_ratio[30] 	1
scalar barabasi_100nodes_network.node[31].core_layer 	interests[31] 	2171010
scalar barabasi_100nodes_network.node[31].core_layer 	data[31] 	1410290
scalar barabasi_100nodes_network.node[31].core_layer 	slots_sent[face$o[1]->client[31]] 	108961100
scalar barabasi_100nodes_network.node[31].core_layer 	slots_sent[face$o[2]->node[7]] 	0
scalar barabasi_100nodes_network.node[31].core_layer 	slots_sent[face$o[3]->node[65]] 	108139900
scalar barabasi_100nodes_network.node[31].content_store 	p_hit[31] 	0.35039912298884
scalar barabasi_100nodes_network.node[31].content_store 	hits[31] 	760720
scalar barabasi_100nodes_network.node[31].content_store 	misses[31] 	1410290
scalar barabasi_100nodes_network.node[31].content_store 	decision_yes[31] 	1410290
scalar barabasi_100nodes_network.node[31].content_store 	decision_no[31] 	0
scalar barabasi_100nodes_network.node[31].content_store 	decision_ratio[31] 	1
scalar barabasi_100nodes_network.node[32].core_layer 	interests[32] 	1992118
scalar barabasi_100nodes_network.node[32].core_layer 	data[32] 	1166841
scalar barabasi_100nodes_network.node[32].core_layer 	slots_sent[face$o[1]->client[32]] 	108774900
scalar barabasi_100nodes_network.node[32].core_layer 	slots_sent[face$o[2]->node[2]] 	0
scalar barabasi_100nodes_network.node[32].core_layer 	slots_sent[face$o[3]->node[43]] 	45230300
scalar barabasi_100nodes_network.node[32].core_layer 	slots_sent[face$o[4]->node[64]] 	45206600
scalar barabasi_100nodes_network.node[32].content_store 	p_hit[32] 	0.41427114257288
scalar barabasi_100nodes_network.node[32].content_store 	hits[32] 	825277
scalar barabasi_100nodes_network.node[32].content_store 	misses[32] 	1166841
scalar barabasi_100nodes_network.node[32].content_store 	decision_yes[32] 	1166841
scalar barabasi_100nodes_network.node[32].content_store 	decision_no[32] 	0
scalar barabasi_100nodes_network.node[32].content_store 	decision_ratio[32] 	1
scalar barabasi_100nodes_network.node[33].core_layer 	interests[33] 	1087436
scalar barabasi_100nodes_network.node[33].core_layer 	data[33] 	451391
scalar barabasi_100nodes_network.node[33].core_layer 	slots_sent[face$o[1]->client[33]] 	108743600
scalar barabasi_100nodes_network.node[33].core_layer 	slots_sent[face$o[2]->node[2]] 	0
scalar barabasi_100nodes_network.node[33].content_store 	p_hit[33] 	0.58490338741774
scalar barabasi_100nodes_network.node[33].content_store 	hits[33] 	636045
scalar barabasi_100nodes_network.node[33].content_store 	misses[33] 	451391
scalar barabasi_100nodes_network.node[33].content_store 	decision_yes[33] 	451391
scalar barabasi_100nodes_network.node[33].content_store 	decision_no[33] 	0
scalar barabasi_100nodes_network.node[33].content_store 	decision_ratio[33] 	1
scalar barabasi_100nodes_network.node[34].core_layer 	interests[34] 	1087647
scalar barabasi_100nodes_network.node[34].core_layer 	data[34] 	451278
scalar barabasi_100nodes_network.node[34].core_layer 	slots_sent[face$o[1]->client[34]] 	108764700
scalar barabasi_100nodes_network.node[34].core_layer 	slots_sent[face$o[2]->node[2]] 	0
scalar barabasi_100nodes_network.node[34].content_store 	p_hit[34] 	0.58508780882032
scalar barabasi_100nodes_network.node[34].content_store 	hits[34] 	636369
scalar barabasi_100nodes_network.node[34].content_store 	misses[34] 	451278
scalar barabasi_100nodes_network.node[34].content_store 	decision_yes[34] 	451278
scalar barabasi_100nodes_network.node[34].content_store 	decision_no[34] 	0
scalar barabasi_100nodes_network.node[34].content_store 	decision_ratio[34] 	1
scalar barabasi_100nodes_network.node[35].core_layer 	interests[35] 	1538594
scalar barabasi_100nodes_network.node[35].core_layer 	data[35] 	824093
scalar barabasi_100nodes_network.node[35].core_layer 	slots_sent[face$o[1]->client[35]] 	108674400
scalar barabasi_100nodes_network.node[35].core_layer 	slots_sent[face$o[2]->node[5]] 	0
scalar barabasi_100nodes_network.node[35].core_layer 	slots_sent[face$o[3]->node[50]] 	45185000
scalar barabasi_100nodes_network.node[35].content_store 	p_hit[35] 	0.46438566639412
scalar barabasi_100nodes_network.node[35].content_store 	hits[35] 	714501
scalar barabasi_100nodes_network.node[35].content_store 	misses[35] 	824093
scalar barabasi_100nodes_network.node[35].content_store 	decision_yes[35] 	824093
scalar barabasi_100nodes_network.node[35].content_store 	decision_no[35] 	0
scalar barabasi_100nodes_network.node[35].content_store 	decision_ratio[35] 	1
scalar barabasi_100nodes_network.node[36].core_layer 	interests[36] 	1539563
scalar barabasi_100nodes_network.node[36].core_layer 	data[36] 	824970
scalar barabasi_100nodes_network.node[36].core_layer 	slots_sent[face$o[1]->client[36]] 	108743600
scalar barabasi_100nodes_network.node[36].core_layer 	slots_sent[face$o[2]->node[2]] 	0
scalar barabasi_100nodes_network.node[36].core_layer 	slots_sent[face$o[3]->node[75]] 	45212700
scalar barabasi_100nodes_network.node[36].content_store 	p_hit[36] 	0.46415313955973
scalar barabasi_100nodes_network.node[36].content_store 	hits[36] 	714593
scalar barabasi_100nodes_network.node[36].content_store 	misses[36] 	824970
scalar barabasi_100nodes_network.node[36].content_store 	decision_yes[36] 	824970
scalar barabasi_100nodes_network.node[36].content_store 	decision_no[36] 	0
scalar barabasi_100nodes_network.node[36].content_store 	decision_ratio[36] 	1
scalar barabasi_100nodes_network.node[37].core_layer 	interests[37] 	1086808
scalar barabasi_100nodes_network.node[37].core_layer 	data[37] 	451706
scalar barabasi_100nodes_network.node[37].core_layer 	slots_sent[face$o[1]->client[37]] 	108680800
scalar barabasi_100nodes_network.node[37].core_layer 	slots_sent[face$o[2]->node[0]] 	0
scalar barabasi_100nodes_network.node[37].content_store 	p_hit[37] 	0.58437368882084
scalar barabasi_100nodes_network.node[37].content_store 	hits[37] 	635102
scalar barabasi_100nodes_network.node[37].content_store 	misses[37] 	451706
scalar barabasi_100nodes_network.node[37].content_store 	decision_yes[37] 	451706
scalar barabasi_100nodes_network.node[37].content_store 	decision_no[37] 	0
scalar barabasi_100nodes_network.node[37].content_store 	decision_ratio[37] 	1
scalar barabasi_100nodes_network.node[38].core_layer 	interests[38] 	1088209
scalar barabasi_100nodes_network.node[38].core_layer 	data[38] 	452133
scalar barabasi_100nodes_network.node[38].core_layer 	slots_sent[face$o[1]->client[38]] 	108820900
scalar barabasi_100nodes_network.node[38].core_layer 	slots_sent[face$o[2]->node[25]] 	0
scalar barabasi_100nodes_network.node[38].content_store 	p_hit[38] 	0.58451639345016
scalar barabasi_100nodes_network.node[38].content_store 	hits[38] 	636076
scalar barabasi_100nodes_network.node[38].content_store 	misses[38] 	452133
scalar barabasi_100nodes_network.node[38].content_store 	decision_yes[38] 	452133
scalar barabasi_100nodes_network.node[38].content_store 	decision_no[38] 	0
scalar barabasi_100nodes_network.node[38].content_store 	decision_ratio[38] 	1
scalar barabasi_100nodes_network.node[39].core_layer 	interests[39] 	1538912
scalar barabasi_100nodes_network.node[39].core_layer 	data[39] 	825069
scalar barabasi_100nodes_network.node[39].core_layer 	slots_sent[face$o[1]->client[39]] 	108643400
scalar barabasi_100nodes_network.node[39].core_layer 	slots_sent[face$o[2]->node[8]] 	0
scalar barabasi_100nodes_network.node[39].core_layer 	slots_sent[face$o[3]->node[60]] 	45247800
scalar barabasi_100nodes_network.node[39].content_store 	p_hit[39] 	0.46386213116799
scalar barabasi_100nodes_network.node[39].content_store 	hits[39] 	713843
scalar barabasi_100nodes_network.node[39].content_store 	misses[39] 	825069
scalar barabasi_100nodes_network.node[39].content_store 	decision_yes[39] 	825069
scalar barabasi_100nodes_network.node[39].content_store 	decision_no[39] 	0
scalar barabasi_100nodes_network.node[39].content_store 	decision_ratio[39] 	1
scalar barabasi_100nodes_network.node[40].core_layer 	interests[40] 	1087437
scalar barabasi_100nodes_network.node[40].core_layer 	data[40] 	451425
scalar barabasi_100nodes_network.node[40].core_layer 	slots_sent[face$o[1]->client[40]] 	108743700
scalar barabasi_100nodes_network.node[40].core_layer 	slots_sent[face$o[2]->node[15]] 	0
scalar barabasi_100nodes_network.node[40].content_store 	p_hit[40] 	0.58487250295879
scalar barabasi_100nodes_network.node[40].content_store 	hits[40] 	636012
scalar barabasi_100nodes_network.node[40].content_store 	misses[40] 	451425
scalar barabasi_100nodes_network.node[40].content_store 	decision_yes[40] 	451425
scalar barabasi_100nodes_network.node[40].content_store 	decision_no[40] 	0
scalar barabasi_100nodes_network.node[40].content_store 	decision_ratio[40] 	1
scalar barabasi_100nodes_network.node[41].core_layer 	interests[41] 	12627756
scalar barabasi_100nodes_network.node[41].core_layer 	data[41] 	10226461
scalar barabasi_100nodes_network.node[41].core_layer 	slots_sent[face$o[1]->client[41]] 	108789000
scalar barabasi_100nodes_network.node[41].core_layer 	slots_sent[face$o[2]->node[2]] 	913840200
scalar barabasi_100nodes_network.node[41].core_layer 	slots_sent[face$o[3]->node[42]] 	45145200
scalar barabasi_100nodes_network.node[41].core_layer 	slots_sent[face$o[4]->node[48]] 	45150100
scalar barabasi_100nodes_network.node[41].core_layer 	slots_sent[face$o[5]->node[54]] 	82207800
scalar barabasi_100nodes_network.node[41].core_layer 	slots_sent[face$o[6]->node[55]] 	33799600
scalar barabasi_100nodes_network.node[41].core_layer 	slots_sent[face$o[7]->node[69]] 	33843700
scalar barabasi_100nodes_network.node[41].content_store 	p_hit[41] 	0.19016007277936
scalar barabasi_100nodes_network.node[41].content_store 	hits[41] 	2401295
scalar barabasi_100nodes_network.node[41].content_store 	misses[41] 	10226461
scalar barabasi_100nodes_network.node[41].content_store 	decision_yes[41] 	10226461
scalar barabasi_100nodes_network.node[41].content_store 	decision_no[41] 	0
scalar barabasi_100nodes_network.node[41].content_store 	decision_ratio[41] 	1
scalar barabasi_100nodes_network.node[42].core_layer 	interests[42] 	1086594
scalar barabasi_100nodes_network.node[42].core_layer 	data[42] 	451452
scalar barabasi_100nodes_network.node[42].core_layer 	slots_sent[face$o[1]->client[42]] 	108659400
scalar barabasi_100nodes_network.node[42].core_layer 	slots_sent[face$o[2]->node[41]] 	0
scalar barabasi_100nodes_network.node[42].content_store 	p_hit[42] 	0.5845255909751
scalar barabasi_100nodes_network.node[42].content_store 	hits[42] 	635142
scalar barabasi_100nodes_network.node[42].content_store 	misses[42] 	451452
scalar barabasi_100nodes_network.node[42].content_store 	decision_yes[42] 	451452
scalar barabasi_100nodes_network.node[42].content_store 	decision_no[42] 	0
scalar barabasi_100nodes_network.node[42].content_store 	decision_ratio[42] 	1
scalar barabasi_100nodes_network.node[43].core_layer 	interests[43] 	1090319
scalar barabasi_100nodes_network.node[43].core_layer 	data[43] 	452303
scalar barabasi_100nodes_network.node[43].core_layer 	slots_sent[face$o[1]->client[43]] 	109031900
scalar barabasi_100nodes_network.node[43].core_layer 	slots_sent[face$o[2]->node[32]] 	0
scalar barabasi_100nodes_network.node[43].content_store 	p_hit[43] 	0.58516452524445
scalar barabasi_100nodes_network.node[43].content_store 	hits[43] 	638016
scalar barabasi_100nodes_network.node[43].content_store 	misses[43] 	452303
scalar barabasi_100nodes_network.node[43].content_store 	decision_yes[43] 	452303
scalar barabasi_100nodes_network.node[43].content_store 	decision_no[43] 	0
scalar barabasi_100nodes_network.node[43].content_store 	decision_ratio[43] 	1
scalar barabasi_100nodes_network.node[44].core_layer 	interests[44] 	1088426
scalar barabasi_100nodes_network.node[44].core_layer 	data[44] 	452054
scalar barabasi_100nodes_network.node[44].core_layer 	slots_sent[face$o[1]->client[44]] 	108842600
scalar barabasi_100nodes_network.node[44].core_layer 	slots_sent[face$o[2]->node[0]] 	0
scalar barabasi_100nodes_network.node[44].content_store 	p_hit[44] 	0.58467181048597
scalar barabasi_100nodes_network.node[44].content_store 	hits[44] 	636372
scalar barabasi_100nodes_network.node[44].content_store 	misses[44] 	452054
scalar barabasi_100nodes_network.node[44].content_store 	decision_yes[44] 	452054
scalar barabasi_100nodes_network.node[44].content_store 	decision_no[44] 	0
scalar barabasi_100nodes_network.node[44].content_store 	decision_ratio[44] 	1
scalar barabasi_100nodes_network.node[45].core_layer 	interests[45] 	1088686
scalar barabasi_100nodes_network.node[45].core_layer 	data[45] 	451754
scalar barabasi_100nodes_network.node[45].core_layer 	slots_sent[face$o[1]->client[45]] 	108868600
scalar barabasi_100nodes_network.node[45].core_layer 	slots_sent[face$o[2]->node[2]] 	0
scalar barabasi_100nodes_network.node[45].content_store 	p_hit[45] 	0.58504656071631
scalar barabasi_100nodes_network.node[45].content_store 	hits[45] 	636932
scalar barabasi_100nodes_network.node[45].content_store 	misses[45] 	451754
scalar barabasi_100nodes_network.node[45].content_store 	decision_yes[45] 	451754
scalar barabasi_100nodes_network.node[45].content_store 	decision_no[45] 	0
scalar barabasi_100nodes_network.node[45].content_store 	decision_ratio[45] 	1
scalar barabasi_100nodes_network.node[46].core_layer 	interests[46] 	6042093
scalar barabasi_100nodes_network.node[46].core_layer 	repo_load[46] 	4916833
scalar barabasi_100nodes_network.node[46].core_layer 	data[46] 	617805
scalar barabasi_100nodes_network.node[46].core_layer 	slots_sent[face$o[1]->client[46]] 	108866400
scalar barabasi_100nodes_network.node[46].core_layer 	slots_sent[face$o[2]->node[23]] 	450248500
scalar barabasi_100nodes_network.node[46].core_layer 	slots_sent[face$o[3]->node[82]] 	45094400
scalar barabasi_100nodes_network.node[46].content_store 	p_hit[46] 	0.083986625164492
scalar barabasi_100nodes_network.node[46].content_store 	hits[46] 	507455
scalar barabasi_100nodes_network.node[46].content_store 	misses[46] 	5534638
scalar barabasi_100nodes_network.node[46].content_store 	decision_yes[46] 	617805
scalar barabasi_100nodes_network.node[46].content_store 	decision_no[46] 	4916833
scalar barabasi_100nodes_network.node[46].content_store 	decision_ratio[46] 	0.11162518668791
scalar barabasi_100nodes_network.node[47].core_layer 	interests[47] 	1089417
scalar barabasi_100nodes_network.node[47].core_layer 	repo_load[47] 	220956
scalar barabasi_100nodes_network.node[47].core_layer 	data[47] 	339619
scalar barabasi_100nodes_network.node[47].core_layer 	slots_sent[face$o[1]->client[47]] 	108941700
scalar barabasi_100nodes_network.node[47].core_layer 	slots_sent[face$o[2]->node[23]] 	0
scalar barabasi_100nodes_network.node[47].content_store 	p_hit[47] 	0.48543578813255
scalar barabasi_100nodes_network.node[47].content_store 	hits[47] 	528842
scalar barabasi_100nodes_network.node[47].content_store 	misses[47] 	560575
scalar barabasi_100nodes_network.node[47].content_store 	decision_yes[47] 	339619
scalar barabasi_100nodes_network.node[47].content_store 	decision_no[47] 	220956
scalar barabasi_100nodes_network.node[47].content_store 	decision_ratio[47] 	0.60584043169959
scalar barabasi_100nodes_network.node[48].core_layer 	interests[48] 	1088349
scalar barabasi_100nodes_network.node[48].core_layer 	data[48] 	451501
scalar barabasi_100nodes_network.node[48].core_layer 	slots_sent[face$o[1]->client[48]] 	108834900
scalar barabasi_100nodes_network.node[48].core_layer 	slots_sent[face$o[2]->node[41]] 	0
scalar barabasi_100nodes_network.node[48].content_store 	p_hit[48] 	0.58515053535217
scalar barabasi_100nodes_network.node[48].content_store 	hits[48] 	636848
scalar barabasi_100nodes_network.node[48].content_store 	misses[48] 	451501
scalar barabasi_100nodes_network.node[48].content_store 	decision_yes[48] 	451501
scalar barabasi_100nodes_network.node[48].content_store 	decision_no[48] 	0
scalar barabasi_100nodes_network.node[48].content_store 	decision_ratio[48] 	1
scalar barabasi_100nodes_network.node[49].core_layer 	interests[49] 	1088552
scalar barabasi_100nodes_network.node[49].core_layer 	data[49] 	451567
scalar barabasi_100nodes_network.node[49].core_layer 	slots_sent[face$o[1]->client[49]] 	108855200
scalar barabasi_100nodes_network.node[49].core_layer 	slots_sent[face$o[2]->node[7]] 	0
scalar barabasi_100nodes_network.node[49].content_store 	p_hit[49] 	0.58516726807723
scalar barabasi_100nodes_network.node[49].content_store 	hits[49] 	636985
scalar barabasi_100nodes_network.node[49].content_store 	misses[49] 	451567
scalar barabasi_100nodes_network.node[49].content_store 	decision_yes[49] 	451567
scalar barabasi_100nodes_network.node[49].content_store 	decision_no[49] 	0
scalar barabasi_100nodes_network.node[49].content_store 	decision_ratio[49] 	1
scalar barabasi_100nodes_network.node[50].core_layer 	interests[50] 	1088020
scalar barabasi_100nodes_network.node[50].core_layer 	data[50] 	451850
[...]
scalar barabasi_100nodes_network.client[9] 	downloads[9].real 	1088591
scalar barabasi_100nodes_network.client[9] 	avg_time[9].real 	0
scalar barabasi_100nodes_network.client[10] 	hdistance[10].real 	1.0200814385331
scalar barabasi_100nodes_network.client[10] 	downloads[10].real 	1089165
scalar barabasi_100nodes_network.client[10] 	avg_time[10].real 	0
scalar barabasi_100nodes_network.client[11] 	hdistance[11].real 	1.2333802340874
scalar barabasi_100nodes_network.client[11] 	downloads[11].real 	1088824
scalar barabasi_100nodes_network.client[11] 	avg_time[11].real 	0
scalar barabasi_100nodes_network.client[12] 	hdistance[12].real 	1.327545384972
scalar barabasi_100nodes_network.client[12] 	downloads[12].real 	1087144
scalar barabasi_100nodes_network.client[12] 	avg_time[12].real 	0
scalar barabasi_100nodes_network.client[13] 	hdistance[13].real 	0.94843498145846
scalar barabasi_100nodes_network.client[13] 	downloads[13].real 	1087559
scalar barabasi_100nodes_network.client[13] 	avg_time[13].real 	0
scalar barabasi_100nodes_network.client[14] 	hdistance[14].real 	1.2350549598028
scalar barabasi_100nodes_network.client[14] 	downloads[14].real 	1087886
scalar barabasi_100nodes_network.client[14] 	avg_time[14].real 	0
scalar barabasi_100nodes_network.client[15] 	hdistance[15].real 	1.0332622789432
scalar barabasi_100nodes_network.client[15] 	downloads[15].real 	1087899
scalar barabasi_100nodes_network.client[15] 	avg_time[15].real 	0
scalar barabasi_100nodes_network.client[16] 	hdistance[16].real 	0.91746669527035
scalar barabasi_100nodes_network.client[16] 	downloads[16].real 	1086107
scalar barabasi_100nodes_network.client[16] 	avg_time[16].real 	0
scalar barabasi_100nodes_network.client[17] 	hdistance[17].real 	1.2370953542449
scalar barabasi_100nodes_network.client[17] 	downloads[17].real 	1089317
scalar barabasi_100nodes_network.client[17] 	avg_time[17].real 	0
scalar barabasi_100nodes_network.client[18] 	hdistance[18].real 	0.94590478712843
scalar barabasi_100nodes_network.client[18] 	downloads[18].real 	1087416
scalar barabasi_100nodes_network.client[18] 	avg_time[18].real 	0
scalar barabasi_100nodes_network.client[19] 	hdistance[19].real 	1.2500602020952
scalar barabasi_100nodes_network.client[19] 	downloads[19].real 	1088002
scalar barabasi_100nodes_network.client[19] 	avg_time[19].real 	0
scalar barabasi_100nodes_network.client[20] 	hdistance[20].real 	1.3331831083331
scalar barabasi_100nodes_network.client[20] 	downloads[20].real 	1087258
scalar barabasi_100nodes_network.client[20] 	avg_time[20].real 	0
scalar barabasi_100nodes_network.client[21] 	hdistance[21].real 	1.0861776720483
scalar barabasi_100nodes_network.client[21] 	downloads[21].real 	1087892
scalar barabasi_100nodes_network.client[21] 	avg_time[21].real 	0
scalar barabasi_100nodes_network.client[22] 	hdistance[22].real 	1.1452839021167
scalar barabasi_100nodes_network.client[22] 	downloads[22].real 	1089460
scalar barabasi_100nodes_network.client[22] 	avg_time[22].real 	0
scalar barabasi_100nodes_network.client[23] 	hdistance[23].real 	0.81327422556744
scalar barabasi_100nodes_network.client[23] 	downloads[23].real 	1087054
scalar barabasi_100nodes_network.client[23] 	avg_time[23].real 	0
scalar barabasi_100nodes_network.client[24] 	hdistance[24].real 	1.5064395058184
scalar barabasi_100nodes_network.client[24] 	downloads[24].real 	1086807
scalar barabasi_100nodes_network.client[24] 	avg_time[24].real 	0
scalar barabasi_100nodes_network.client[25] 	hdistance[25].real 	0.98758675945512
scalar barabasi_100nodes_network.client[25] 	downloads[25].real 	1088354
scalar barabasi_100nodes_network.client[25] 	avg_time[25].real 	0
scalar barabasi_100nodes_network.client[26] 	hdistance[26].real 	0.94316962697457
scalar barabasi_100nodes_network.client[26] 	downloads[26].real 	1087781
scalar barabasi_100nodes_network.client[26] 	avg_time[26].real 	0
scalar barabasi_100nodes_network.client[27] 	hdistance[27].real 	1.298651319753
scalar barabasi_100nodes_network.client[27] 	downloads[27].real 	1087211
scalar barabasi_100nodes_network.client[27] 	avg_time[27].real 	0
scalar barabasi_100nodes_network.client[28] 	hdistance[28].real 	1.1485952799351
scalar barabasi_100nodes_network.client[28] 	downloads[28].real 	1090324
scalar barabasi_100nodes_network.client[28] 	avg_time[28].real 	0
scalar barabasi_100nodes_network.client[29] 	hdistance[29].real 	1.0280423241572
scalar barabasi_100nodes_network.client[29] 	downloads[29].real 	1089496
scalar barabasi_100nodes_network.client[29] 	avg_time[29].real 	0
scalar barabasi_100nodes_network.client[30] 	hdistance[30].real 	1.3003383184497
scalar barabasi_100nodes_network.client[30] 	downloads[30].real 	1087437
scalar barabasi_100nodes_network.client[30] 	avg_time[30].real 	0
scalar barabasi_100nodes_network.client[31] 	hdistance[31].real 	0.97688899983578
scalar barabasi_100nodes_network.client[31] 	downloads[31].real 	1089611
scalar barabasi_100nodes_network.client[31] 	avg_time[31].real 	0
scalar barabasi_100nodes_network.client[32] 	hdistance[32].real 	0.96173014178824
scalar barabasi_100nodes_network.client[32] 	downloads[32].real 	1087749
scalar barabasi_100nodes_network.client[32] 	avg_time[32].real 	0
scalar barabasi_100nodes_network.client[33] 	hdistance[33].real 	1.0268218083639
scalar barabasi_100nodes_network.client[33] 	downloads[33].real 	1087436
scalar barabasi_100nodes_network.client[33] 	avg_time[33].real 	0
scalar barabasi_100nodes_network.client[34] 	hdistance[34].real 	1.0268938359596
scalar barabasi_100nodes_network.client[34] 	downloads[34].real 	1087647
scalar barabasi_100nodes_network.client[34] 	avg_time[34].real 	0
scalar barabasi_100nodes_network.client[35] 	hdistance[35].real 	1.4525601245556
scalar barabasi_100nodes_network.client[35] 	downloads[35].real 	1086744
scalar barabasi_100nodes_network.client[35] 	avg_time[35].real 	0
scalar barabasi_100nodes_network.client[36] 	hdistance[36].real 	0.98778778705138
scalar barabasi_100nodes_network.client[36] 	downloads[36].real 	1087436
scalar barabasi_100nodes_network.client[36] 	avg_time[36].real 	0
scalar barabasi_100nodes_network.client[37] 	hdistance[37].real 	1.1467269287675
scalar barabasi_100nodes_network.client[37] 	downloads[37].real 	1086808
scalar barabasi_100nodes_network.client[37] 	avg_time[37].real 	0
scalar barabasi_100nodes_network.client[38] 	hdistance[38].real 	1.4034408831392
scalar barabasi_100nodes_network.client[38] 	downloads[38].real 	1088209
scalar barabasi_100nodes_network.client[38] 	avg_time[38].real 	0
scalar barabasi_100nodes_network.client[39] 	hdistance[39].real 	1.2931047813305
scalar barabasi_100nodes_network.client[39] 	downloads[39].real 	1086434
scalar barabasi_100nodes_network.client[39] 	avg_time[39].real 	0
scalar barabasi_100nodes_network.client[40] 	hdistance[40].real 	1.2734926253199
scalar barabasi_100nodes_network.client[40] 	downloads[40].real 	1087437
scalar barabasi_100nodes_network.client[40] 	avg_time[40].real 	0
scalar barabasi_100nodes_network.client[41] 	hdistance[41].real 	0.66286205406797
scalar barabasi_100nodes_network.client[41] 	downloads[41].real 	1087890
scalar barabasi_100nodes_network.client[41] 	avg_time[41].real 	0
scalar barabasi_100nodes_network.client[42] 	hdistance[42].real 	1.0769118916541
scalar barabasi_100nodes_network.client[42] 	downloads[42].real 	1086594
scalar barabasi_100nodes_network.client[42] 	avg_time[42].real 	0
scalar barabasi_100nodes_network.client[43] 	hdistance[43].real 	1.3764091059589
scalar barabasi_100nodes_network.client[43] 	downloads[43].real 	1090319
scalar barabasi_100nodes_network.client[43] 	avg_time[43].real 	0
scalar barabasi_100nodes_network.client[44] 	hdistance[44].real 	1.1472089053367
scalar barabasi_100nodes_network.client[44] 	downloads[44].real 	1088426
scalar barabasi_100nodes_network.client[44] 	avg_time[44].real 	0
scalar barabasi_100nodes_network.client[45] 	hdistance[45].real 	1.0264337008099
scalar barabasi_100nodes_network.client[45] 	downloads[45].real 	1088686
scalar barabasi_100nodes_network.client[45] 	avg_time[45].real 	0
scalar barabasi_100nodes_network.client[46] 	hdistance[46].real 	1.286877310171
scalar barabasi_100nodes_network.client[46] 	downloads[46].real 	1088664
scalar barabasi_100nodes_network.client[46] 	avg_time[46].real 	0
scalar barabasi_100nodes_network.client[47] 	hdistance[47].real 	1.0453444365197
scalar barabasi_100nodes_network.client[47] 	downloads[47].real 	1089417
scalar barabasi_100nodes_network.client[47] 	avg_time[47].real 	0
scalar barabasi_100nodes_network.client[48] 	hdistance[48].real 	1.0742638620516
scalar barabasi_100nodes_network.client[48] 	downloads[48].real 	1088349
scalar barabasi_100nodes_network.client[48] 	avg_time[48].real 	0
scalar barabasi_100nodes_network.client[49] 	hdistance[49].real 	1.0640180717136
scalar barabasi_100nodes_network.client[49] 	downloads[49].real 	1088552
scalar barabasi_100nodes_network.client[49] 	avg_time[49].real 	0
scalar barabasi_100nodes_network.client[50] 	hdistance[50].real 	1.8668572268893
scalar barabasi_100nodes_network.client[50] 	downloads[50].real 	1088020
scalar barabasi_100nodes_network.client[50] 	avg_time[50].real 	0
scalar barabasi_100nodes_network.client[51] 	hdistance[51].real 	1.2311723355967
scalar barabasi_100nodes_network.client[51] 	downloads[51].real 	1086566
scalar barabasi_100nodes_network.client[51] 	avg_time[51].real 	0
scalar barabasi_100nodes_network.client[52] 	hdistance[52].real 	1.4026295094498
scalar barabasi_100nodes_network.client[52] 	downloads[52].real 	1088492
scalar barabasi_100nodes_network.client[52] 	avg_time[52].real 	0
scalar barabasi_100nodes_network.client[53] 	hdistance[53].real 	1.3609466911511
scalar barabasi_100nodes_network.client[53] 	downloads[53].real 	1087493
scalar barabasi_100nodes_network.client[53] 	avg_time[53].real 	0
scalar barabasi_100nodes_network.client[54] 	hdistance[54].real 	1.0391477502667
scalar barabasi_100nodes_network.client[54] 	downloads[54].real 	1087240
scalar barabasi_100nodes_network.client[54] 	avg_time[54].real 	0
scalar barabasi_100nodes_network.client[55] 	hdistance[55].real 	1.113524566038
scalar barabasi_100nodes_network.client[55] 	downloads[55].real 	1087192
scalar barabasi_100nodes_network.client[55] 	avg_time[55].real 	0
scalar barabasi_100nodes_network.client[56] 	hdistance[56].real 	1.2740999330929
scalar barabasi_100nodes_network.client[56] 	downloads[56].real 	1085086
scalar barabasi_100nodes_network.client[56] 	avg_time[56].real 	0
scalar barabasi_100nodes_network.client[57] 	hdistance[57].real 	1.5007677357997
scalar barabasi_100nodes_network.client[57] 	downloads[57].real 	1088265
scalar barabasi_100nodes_network.client[57] 	avg_time[57].real 	0
scalar barabasi_100nodes_network.client[58] 	hdistance[58].real 	1.109631760369
scalar barabasi_100nodes_network.client[58] 	downloads[58].real 	1086738
scalar barabasi_100nodes_network.client[58] 	avg_time[58].real 	0
scalar barabasi_100nodes_network.client[59] 	hdistance[59].real 	1.0274212749528
scalar barabasi_100nodes_network.client[59] 	downloads[59].real 	1087805
scalar barabasi_100nodes_network.client[59] 	avg_time[59].real 	0
scalar barabasi_100nodes_network.client[60] 	hdistance[60].real 	1.7048234407455
scalar barabasi_100nodes_network.client[60] 	downloads[60].real 	1088020
scalar barabasi_100nodes_network.client[60] 	avg_time[60].real 	0
scalar barabasi_100nodes_network.client[61] 	hdistance[61].real 	1.3268233128846
scalar barabasi_100nodes_network.client[61] 	downloads[61].real 	1087759
scalar barabasi_100nodes_network.client[61] 	avg_time[61].real 	0
scalar barabasi_100nodes_network.client[62] 	hdistance[62].real 	0.96229933211171
scalar barabasi_100nodes_network.client[62] 	downloads[62].real 	1086559
scalar barabasi_100nodes_network.client[62] 	avg_time[62].real 	0
scalar barabasi_100nodes_network.client[63] 	hdistance[63].real 	1.6661200133994
scalar barabasi_100nodes_network.client[63] 	downloads[63].real 	1086612
scalar barabasi_100nodes_network.client[63] 	avg_time[63].real 	0
scalar barabasi_100nodes_network.client[64] 	hdistance[64].real 	1.3778063603332
scalar barabasi_100nodes_network.client[64] 	downloads[64].real 	1088465
scalar barabasi_100nodes_network.client[64] 	avg_time[64].real 	0
scalar barabasi_100nodes_network.client[65] 	hdistance[65].real 	1.3425260236841
scalar barabasi_100nodes_network.client[65] 	downloads[65].real 	1087567
scalar barabasi_100nodes_network.client[65] 	avg_time[65].real 	0
scalar barabasi_100nodes_network.client[66] 	hdistance[66].real 	1.3246973477072
scalar barabasi_100nodes_network.client[66] 	downloads[66].real 	1086230
scalar barabasi_100nodes_network.client[66] 	avg_time[66].real 	0
scalar barabasi_100nodes_network.client[67] 	hdistance[67].real 	1.2362457462256
scalar barabasi_100nodes_network.client[67] 	downloads[67].real 	1086682
scalar barabasi_100nodes_network.client[67] 	avg_time[67].real 	0
scalar barabasi_100nodes_network.client[68] 	hdistance[68].real 	1.3612045056274
scalar barabasi_100nodes_network.client[68] 	downloads[68].real 	1087085
scalar barabasi_100nodes_network.client[68] 	avg_time[68].real 	0
scalar barabasi_100nodes_network.client[69] 	hdistance[69].real 	1.0847920687663
scalar barabasi_100nodes_network.client[69] 	downloads[69].real 	1088557
scalar barabasi_100nodes_network.client[69] 	avg_time[69].real 	0
scalar barabasi_100nodes_network.client[70] 	hdistance[70].real 	1.6669201073461
scalar barabasi_100nodes_network.client[70] 	downloads[70].real 	1087697
scalar barabasi_100nodes_network.client[70] 	avg_time[70].real 	0
scalar barabasi_100nodes_network.client[71] 	hdistance[71].real 	1.3347563952735
scalar barabasi_100nodes_network.client[71] 	downloads[71].real 	1087561
scalar barabasi_100nodes_network.client[71] 	avg_time[71].real 	0
scalar barabasi_100nodes_network.client[72] 	hdistance[72].real 	1.3599798612151
scalar barabasi_100nodes_network.client[72] 	downloads[72].real 	1088447
scalar barabasi_100nodes_network.client[72] 	avg_time[72].real 	0
scalar barabasi_100nodes_network.client[73] 	hdistance[73].real 	1.1108684599316
scalar barabasi_100nodes_network.client[73] 	downloads[73].real 	1085692
scalar barabasi_100nodes_network.client[73] 	avg_time[73].real 	0
scalar barabasi_100nodes_network.client[74] 	hdistance[74].real 	1.1473990457136
scalar barabasi_100nodes_network.client[74] 	downloads[74].real 	1088562
scalar barabasi_100nodes_network.client[74] 	avg_time[74].real 	0
scalar barabasi_100nodes_network.client[75] 	hdistance[75].real 	1.403104249104
scalar barabasi_100nodes_network.client[75] 	downloads[75].real 	1088959
scalar barabasi_100nodes_network.client[75] 	avg_time[75].real 	0
scalar barabasi_100nodes_network.client[76] 	hdistance[76].real 	1.5279274892273
scalar barabasi_100nodes_network.client[76] 	downloads[76].real 	1088390
scalar barabasi_100nodes_network.client[76] 	avg_time[76].real 	0
scalar barabasi_100nodes_network.client[77] 	hdistance[77].real 	1.3239564228192
scalar barabasi_100nodes_network.client[77] 	downloads[77].real 	1088276
scalar barabasi_100nodes_network.client[77] 	avg_time[77].real 	0
scalar barabasi_100nodes_network.client[78] 	hdistance[78].real 	1.1645408151535
scalar barabasi_100nodes_network.client[78] 	downloads[78].real 	1087329
scalar barabasi_100nodes_network.client[78] 	avg_time[78].real 	0
scalar barabasi_100nodes_network.client[79] 	hdistance[79].real 	1.0281231978333
scalar barabasi_100nodes_network.client[79] 	downloads[79].real 	1090701
scalar barabasi_100nodes_network.client[79] 	avg_time[79].real 	0
scalar barabasi_100nodes_network.client[80] 	hdistance[80].real 	1.6648126447544
scalar barabasi_100nodes_network.client[80] 	downloads[80].real 	1087186
scalar barabasi_100nodes_network.client[80] 	avg_time[80].real 	0
scalar barabasi_100nodes_network.client[81] 	hdistance[81].real 	1.3674723805115
scalar barabasi_100nodes_network.client[81] 	downloads[81].real 	1088724
scalar barabasi_100nodes_network.client[81] 	avg_time[81].real 	0
scalar barabasi_100nodes_network.client[82] 	hdistance[82].real 	1.5270652020933
scalar barabasi_100nodes_network.client[82] 	downloads[82].real 	1087097
scalar barabasi_100nodes_network.client[82] 	avg_time[82].real 	0
scalar barabasi_100nodes_network.client[83] 	hdistance[83].real 	1.2317925941988
scalar barabasi_100nodes_network.client[83] 	downloads[83].real 	1088417
scalar barabasi_100nodes_network.client[83] 	avg_time[83].real 	0
scalar barabasi_100nodes_network.client[84] 	hdistance[84].real 	1.3436629011315
scalar barabasi_100nodes_network.client[84] 	downloads[84].real 	1088203
scalar barabasi_100nodes_network.client[84] 	avg_time[84].real 	0
scalar barabasi_100nodes_network.client[85] 	hdistance[85].real 	1.3359506728396
scalar barabasi_100nodes_network.client[85] 	downloads[85].real 	1087109
scalar barabasi_100nodes_network.client[85] 	avg_time[85].real 	0
scalar barabasi_100nodes_network.client[86] 	hdistance[86].real 	1.2301303062016
scalar barabasi_100nodes_network.client[86] 	downloads[86].real 	1086441
scalar barabasi_100nodes_network.client[86] 	avg_time[86].real 	0
scalar barabasi_100nodes_network.client[87] 	hdistance[87].real 	1.5835031345441
scalar barabasi_100nodes_network.client[87] 	downloads[87].real 	1088037
scalar barabasi_100nodes_network.client[87] 	avg_time[87].real 	0
scalar barabasi_100nodes_network.client[88] 	hdistance[88].real 	1.7204142705015
scalar barabasi_100nodes_network.client[88] 	downloads[88].real 	1088371
scalar barabasi_100nodes_network.client[88] 	avg_time[88].real 	0
scalar barabasi_100nodes_network.client[89] 	hdistance[89].real 	1.536873399799
scalar barabasi_100nodes_network.client[89] 	downloads[89].real 	1090488
scalar barabasi_100nodes_network.client[89] 	avg_time[89].real 	0
scalar barabasi_100nodes_network.client[90] 	hdistance[90].real 	1.0667901855722
scalar barabasi_100nodes_network.client[90] 	downloads[90].real 	1089172
scalar barabasi_100nodes_network.client[90] 	avg_time[90].real 	0
scalar barabasi_100nodes_network.client[91] 	hdistance[91].real 	1.3598730616846
scalar barabasi_100nodes_network.client[91] 	downloads[91].real 	1089348
scalar barabasi_100nodes_network.client[91] 	avg_time[91].real 	0
scalar barabasi_100nodes_network.client[92] 	hdistance[92].real 	1.753902363828
scalar barabasi_100nodes_network.client[92] 	downloads[92].real 	1086585
scalar barabasi_100nodes_network.client[92] 	avg_time[92].real 	0
scalar barabasi_100nodes_network.client[93] 	hdistance[93].real 	1.1433289111622
scalar barabasi_100nodes_network.client[93] 	downloads[93].real 	1087701
scalar barabasi_100nodes_network.client[93] 	avg_time[93].real 	0
scalar barabasi_100nodes_network.client[94] 	hdistance[94].real 	1.5234084934862
scalar barabasi_100nodes_network.client[94] 	downloads[94].real 	1088387
scalar barabasi_100nodes_network.client[94] 	avg_time[94].real 	0
scalar barabasi_100nodes_network.client[95] 	hdistance[95].real 	1.6094136295676
scalar barabasi_100nodes_network.client[95] 	downloads[95].real 	1088868
scalar barabasi_100nodes_network.client[95] 	avg_time[95].real 	0
scalar barabasi_100nodes_network.client[96] 	hdistance[96].real 	1.7387501230085
scalar barabasi_100nodes_network.client[96] 	downloads[96].real 	1087323
scalar barabasi_100nodes_network.client[96] 	avg_time[96].real 	0
scalar barabasi_100nodes_network.client[97] 	hdistance[97].real 	1.4500646311239
scalar barabasi_100nodes_network.client[97] 	downloads[97].real 	1086164
scalar barabasi_100nodes_network.client[97] 	avg_time[97].real 	0
scalar barabasi_100nodes_network.client[98] 	hdistance[98].real 	1.754518227442
scalar barabasi_100nodes_network.client[98] 	downloads[98].real 	1087152
scalar barabasi_100nodes_network.client[98] 	avg_time[98].real 	0
scalar barabasi_100nodes_network.client[99] 	hdistance[99].real 	1.7159729500677
scalar barabasi_100nodes_network.client[99] 	downloads[99].real 	1086731
scalar barabasi_100nodes_network.client[99] 	avg_time[99].real 	0
