version 2
run General-1-20150722-12:17:07-31765
attr C 11666667
attr D lce
attr F spr
attr R lru
attr a 1
attr brates 0.3_0.7_1.5_2.5_3.5
attr configname General
attr ctlg 1e8
attr datetime 20150722-12:17:07
attr experiment General
attr inifile omnetpp.ini
attr iterationvars "$net=barabasi_100nodes, $rep=2, $lambda=100, $a=1, $ctlg=1e8, $brates=0.3_0.7_1.5_2.5_3.5, $F=spr, $ttl=1000, $D=lce, $R=lru, $C=11666667, $window=60, $variance=0.05, $mytime=180000"
attr iterationvars2 "$net=barabasi_100nodes, $rep=2, $lambda=100, $a=1, $ctlg=1e8, $brates=0.3_0.7_1.5_2.5_3.5, $F=spr, $ttl=1000, $D=lce, $R=lru, $C=11666667, $window=60, $variance=0.05, $mytime=180000, $repetition=0"
attr lambda 100
attr measurement "$net=barabasi_100nodes, $rep=2, $lambda=100, $a=1, $ctlg=1e8, $brates=0.3_0.7_1.5_2.5_3.5, $F=spr, $ttl=1000, $D=lce, $R=lru, $C=11666667, $window=60, $variance=0.05, $mytime=180000"
attr mytime 180000
attr net barabasi_100nodes
attr network networks.${net=barabasi_100nodes}_network
attr processid 31765
attr rep 2
attr repetition 0
attr replication #0
attr resultdir results
attr runnumber 1
attr seedset 2
attr ttl 1000
attr variance 0.05
attr window 60

scalar . 	C 	11666667
scalar . 	a 	1
scalar . 	ctlg 	1e8
scalar . 	lambda 	100
scalar . 	mytime 	180000
scalar . 	rep 	2
scalar . 	ttl 	1000
scalar . 	variance 	0.05
scalar . 	window 	60
scalar barabasi_100nodes_network.content_distribution 	repo-0 	47
scalar barabasi_100nodes_network.content_distribution 	repo-1 	68
scalar barabasi_100nodes_network.content_distribution 	repo-2 	25
scalar barabasi_100nodes_network.content_distribution 	repo-3 	67
scalar barabasi_100nodes_network.content_distribution 	repo-4 	83
scalar barabasi_100nodes_network.content_distribution 	repo-5 	23
scalar barabasi_100nodes_network.content_distribution 	repo-6 	92
scalar barabasi_100nodes_network.content_distribution 	repo-7 	57
scalar barabasi_100nodes_network.content_distribution 	repo-8 	14
scalar barabasi_100nodes_network.content_distribution 	repo-9 	72
scalar barabasi_100nodes_network.content_distribution 	repo-10 	89
scalar barabasi_100nodes_network.content_distribution 	repo-11 	42
scalar barabasi_100nodes_network.content_distribution 	repo-12 	90
scalar barabasi_100nodes_network.content_distribution 	repo-13 	8
scalar barabasi_100nodes_network.content_distribution 	repo-14 	39
scalar barabasi_100nodes_network.content_distribution 	repo-15 	48
scalar barabasi_100nodes_network.content_distribution 	repo-16 	7
scalar barabasi_100nodes_network.content_distribution 	repo-17 	44
scalar barabasi_100nodes_network.content_distribution 	repo-18 	0
scalar barabasi_100nodes_network.content_distribution 	repo-19 	75
scalar barabasi_100nodes_network.content_distribution 	repo-20 	55
scalar barabasi_100nodes_network.content_distribution 	repo-21 	6
scalar barabasi_100nodes_network.content_distribution 	repo-22 	19
scalar barabasi_100nodes_network.content_distribution 	repo-23 	60
scalar barabasi_100nodes_network.content_distribution 	repo-24 	63
scalar barabasi_100nodes_network.content_distribution 	repo-25 	69
scalar barabasi_100nodes_network.content_distribution 	repo-26 	56
scalar barabasi_100nodes_network.content_distribution 	repo-27 	24
scalar barabasi_100nodes_network.content_distribution 	repo-28 	53
scalar barabasi_100nodes_network.content_distribution 	repo-29 	61
scalar barabasi_100nodes_network.content_distribution 	repo-30 	64
scalar barabasi_100nodes_network.content_distribution 	repo-31 	34
scalar barabasi_100nodes_network.content_distribution 	repo-32 	73
scalar barabasi_100nodes_network.content_distribution 	repo-33 	78
scalar barabasi_100nodes_network.content_distribution 	repo-34 	38
scalar barabasi_100nodes_network.content_distribution 	repo-35 	4
scalar barabasi_100nodes_network.content_distribution 	repo-36 	9
scalar barabasi_100nodes_network.content_distribution 	repo-37 	87
scalar barabasi_100nodes_network.content_distribution 	repo-38 	99
scalar barabasi_100nodes_network.content_distribution 	repo-39 	1
scalar barabasi_100nodes_network.content_distribution 	repo-40 	16
scalar barabasi_100nodes_network.content_distribution 	repo-41 	31
scalar barabasi_100nodes_network.content_distribution 	repo-42 	93
scalar barabasi_100nodes_network.content_distribution 	repo-43 	71
scalar barabasi_100nodes_network.content_distribution 	repo-44 	10
scalar barabasi_100nodes_network.content_distribution 	repo-45 	35
scalar barabasi_100nodes_network.content_distribution 	repo-46 	96
scalar barabasi_100nodes_network.content_distribution 	repo-47 	21
scalar barabasi_100nodes_network.content_distribution 	repo-48 	97
scalar barabasi_100nodes_network.content_distribution 	repo-49 	91
scalar barabasi_100nodes_network.content_distribution 	repo-50 	27
scalar barabasi_100nodes_network.content_distribution 	repo-51 	33
scalar barabasi_100nodes_network.content_distribution 	repo-52 	30
scalar barabasi_100nodes_network.content_distribution 	repo-53 	81
scalar barabasi_100nodes_network.content_distribution 	repo-54 	2
scalar barabasi_100nodes_network.content_distribution 	repo-55 	50
scalar barabasi_100nodes_network.content_distribution 	repo-56 	18
scalar barabasi_100nodes_network.content_distribution 	repo-57 	58
scalar barabasi_100nodes_network.content_distribution 	repo-58 	12
scalar barabasi_100nodes_network.content_distribution 	repo-59 	76
scalar barabasi_100nodes_network.content_distribution 	repo-60 	20
scalar barabasi_100nodes_network.content_distribution 	repo-61 	15
scalar barabasi_100nodes_network.content_distribution 	repo-62 	59
scalar barabasi_100nodes_network.content_distribution 	repo-63 	43
scalar barabasi_100nodes_network.content_distribution 	repo-64 	54
scalar barabasi_100nodes_network.content_distribution 	repo-65 	77
scalar barabasi_100nodes_network.content_distribution 	repo-66 	3
scalar barabasi_100nodes_network.content_distribution 	repo-67 	29
scalar barabasi_100nodes_network.content_distribution 	repo-68 	79
scalar barabasi_100nodes_network.content_distribution 	repo-69 	70
scalar barabasi_100nodes_network.content_distribution 	repo-70 	52
scalar barabasi_100nodes_network.content_distribution 	repo-71 	41
scalar barabasi_100nodes_network.content_distribution 	repo-72 	26
scalar barabasi_100nodes_network.content_distribution 	repo-73 	62
scalar barabasi_100nodes_network.content_distribution 	repo-74 	86
scalar barabasi_100nodes_network.content_distribution 	repo-75 	98
scalar barabasi_100nodes_network.content_distribution 	repo-76 	17
scalar barabasi_100nodes_network.content_distribution 	repo-77 	5
scalar barabasi_100nodes_network.content_distribution 	repo-78 	49
scalar barabasi_100nodes_network.content_distribution 	repo-79 	37
scalar barabasi_100nodes_network.content_distribution 	repo-80 	85
scalar barabasi_100nodes_network.content_distribution 	repo-81 	51
scalar barabasi_100nodes_network.content_distribution 	repo-82 	36
scalar barabasi_100nodes_network.content_distribution 	repo-83 	82
scalar barabasi_100nodes_network.content_distribution 	repo-84 	28
scalar barabasi_100nodes_network.content_distribution 	repo-85 	32
scalar barabasi_100nodes_network.content_distribution 	repo-86 	95
scalar barabasi_100nodes_network.content_distribution 	repo-87 	45
scalar barabasi_100nodes_network.content_distribution 	repo-88 	40
scalar barabasi_100nodes_network.content_distribution 	repo-89 	13
scalar barabasi_100nodes_network.content_distribution 	repo-90 	80
scalar barabasi_100nodes_network.content_distribution 	repo-91 	46
scalar barabasi_100nodes_network.content_distribution 	repo-92 	11
scalar barabasi_100nodes_network.content_distribution 	repo-93 	94
scalar barabasi_100nodes_network.content_distribution 	repo-94 	22
scalar barabasi_100nodes_network.content_distribution 	repo-95 	66
scalar barabasi_100nodes_network.content_distribution 	repo-96 	88
scalar barabasi_100nodes_network.content_distribution 	repo-97 	84
scalar barabasi_100nodes_network.content_distribution 	repo-98 	74
scalar barabasi_100nodes_network.content_distribution 	repo-99 	65
scalar barabasi_100nodes_network.content_distribution 	client-0 	85
scalar barabasi_100nodes_network.content_distribution 	client-1 	89
scalar barabasi_100nodes_network.content_distribution 	client-2 	52
scalar barabasi_100nodes_network.content_distribution 	client-3 	21
scalar barabasi_100nodes_network.content_distribution 	client-4 	37
scalar barabasi_100nodes_network.content_distribution 	client-5 	25
scalar barabasi_100nodes_network.content_distribution 	client-6 	68
scalar barabasi_100nodes_network.content_distribution 	client-7 	29
scalar barabasi_100nodes_network.content_distribution 	client-8 	22
scalar barabasi_100nodes_network.content_distribution 	client-9 	32
scalar barabasi_100nodes_network.content_distribution 	client-10 	63
scalar barabasi_100nodes_network.content_distribution 	client-11 	86
scalar barabasi_100nodes_network.content_distribution 	client-12 	98
scalar barabasi_100nodes_network.content_distribution 	client-13 	10
scalar barabasi_100nodes_network.content_distribution 	client-14 	77
scalar barabasi_100nodes_network.content_distribution 	client-15 	35
scalar barabasi_100nodes_network.content_distribution 	client-16 	33
scalar barabasi_100nodes_network.content_distribution 	client-17 	38
scalar barabasi_100nodes_network.content_distribution 	client-18 	80
scalar barabasi_100nodes_network.content_distribution 	client-19 	23
scalar barabasi_100nodes_network.content_distribution 	client-20 	0
scalar barabasi_100nodes_network.content_distribution 	client-21 	82
scalar barabasi_100nodes_network.content_distribution 	client-22 	73
scalar barabasi_100nodes_network.content_distribution 	client-23 	6
scalar barabasi_100nodes_network.content_distribution 	client-24 	17
scalar barabasi_100nodes_network.content_distribution 	client-25 	2
scalar barabasi_100nodes_network.content_distribution 	client-26 	14
scalar barabasi_100nodes_network.content_distribution 	client-27 	46
scalar barabasi_100nodes_network.content_distribution 	client-28 	66
scalar barabasi_100nodes_network.content_distribution 	client-29 	31
scalar barabasi_100nodes_network.content_distribution 	client-30 	8
scalar barabasi_100nodes_network.content_distribution 	client-31 	92
scalar barabasi_100nodes_network.content_distribution 	client-32 	41
scalar barabasi_100nodes_network.content_distribution 	client-33 	26
scalar barabasi_100nodes_network.content_distribution 	client-34 	18
scalar barabasi_100nodes_network.content_distribution 	client-35 	84
scalar barabasi_100nodes_network.content_distribution 	client-36 	55
scalar barabasi_100nodes_network.content_distribution 	client-37 	28
scalar barabasi_100nodes_network.content_distribution 	client-38 	79
scalar barabasi_100nodes_network.content_distribution 	client-39 	45
scalar barabasi_100nodes_network.content_distribution 	client-40 	97
scalar barabasi_100nodes_network.content_distribution 	client-41 	64
scalar barabasi_100nodes_network.content_distribution 	client-42 	1
scalar barabasi_100nodes_network.content_distribution 	client-43 	24
scalar barabasi_100nodes_network.content_distribution 	client-44 	58
scalar barabasi_100nodes_network.content_distribution 	client-45 	36
scalar barabasi_100nodes_network.content_distribution 	client-46 	42
scalar barabasi_100nodes_network.content_distribution 	client-47 	47
scalar barabasi_100nodes_network.content_distribution 	client-48 	43
scalar barabasi_100nodes_network.content_distribution 	client-49 	72
scalar barabasi_100nodes_network.content_distribution 	client-50 	87
scalar barabasi_100nodes_network.content_distribution 	client-51 	51
scalar barabasi_100nodes_network.content_distribution 	client-52 	27
scalar barabasi_100nodes_network.content_distribution 	client-53 	78
scalar barabasi_100nodes_network.content_distribution 	client-54 	61
scalar barabasi_100nodes_network.content_distribution 	client-55 	30
scalar barabasi_100nodes_network.content_distribution 	client-56 	76
scalar barabasi_100nodes_network.content_distribution 	client-57 	57
scalar barabasi_100nodes_network.content_distribution 	client-58 	59
scalar barabasi_100nodes_network.content_distribution 	client-59 	88
scalar barabasi_100nodes_network.content_distribution 	client-60 	50
scalar barabasi_100nodes_network.content_distribution 	client-61 	81
scalar barabasi_100nodes_network.content_distribution 	client-62 	4
scalar barabasi_100nodes_network.content_distribution 	client-63 	93
scalar barabasi_100nodes_network.content_distribution 	client-64 	75
scalar barabasi_100nodes_network.content_distribution 	client-65 	95
scalar barabasi_100nodes_network.content_distribution 	client-66 	3
scalar barabasi_100nodes_network.content_distribution 	client-67 	69
scalar barabasi_100nodes_network.content_distribution 	client-68 	62
scalar barabasi_100nodes_network.content_distribution 	client-69 	60
scalar barabasi_100nodes_network.content_distribution 	client-70 	44
scalar barabasi_100nodes_network.content_distribution 	client-71 	13
scalar barabasi_100nodes_network.content_distribution 	client-72 	96
scalar barabasi_100nodes_network.content_distribution 	client-73 	54
scalar barabasi_100nodes_network.content_distribution 	client-74 	65
scalar barabasi_100nodes_network.content_distribution 	client-75 	48
scalar barabasi_100nodes_network.content_distribution 	client-76 	94
scalar barabasi_100nodes_network.content_distribution 	client-77 	91
scalar barabasi_100nodes_network.content_distribution 	client-78 	74
scalar barabasi_100nodes_network.content_distribution 	client-79 	49
scalar barabasi_100nodes_network.content_distribution 	client-80 	40
scalar barabasi_100nodes_network.content_distribution 	client-81 	53
scalar barabasi_100nodes_network.content_distribution 	client-82 	71
scalar barabasi_100nodes_network.content_distribution 	client-83 	39
scalar barabasi_100nodes_network.content_distribution 	client-84 	56
scalar barabasi_100nodes_network.content_distribution 	client-85 	67
scalar barabasi_100nodes_network.content_distribution 	client-86 	16
scalar barabasi_100nodes_network.content_distribution 	client-87 	70
scalar barabasi_100nodes_network.content_distribution 	client-88 	7
scalar barabasi_100nodes_network.content_distribution 	client-89 	99
scalar barabasi_100nodes_network.content_distribution 	client-90 	90
scalar barabasi_100nodes_network.content_distribution 	client-91 	5
scalar barabasi_100nodes_network.content_distribution 	client-92 	83
scalar barabasi_100nodes_network.content_distribution 	client-93 	20
scalar barabasi_100nodes_network.content_distribution 	client-94 	11
scalar barabasi_100nodes_network.content_distribution 	client-95 	9
scalar barabasi_100nodes_network.content_distribution 	client-96 	19
scalar barabasi_100nodes_network.content_distribution 	client-97 	12
scalar barabasi_100nodes_network.content_distribution 	client-98 	15
scalar barabasi_100nodes_network.content_distribution 	client-99 	34
scalar barabasi_100nodes_network.content_distribution 	repo-0_card 	25001029
scalar barabasi_100nodes_network.content_distribution 	repo-0_price 	0
scalar barabasi_100nodes_network.content_distribution 	repo-1_card 	25001796
scalar barabasi_100nodes_network.content_distribution 	repo-1_price 	0
scalar barabasi_100nodes_network.content_distribution 	repo-2_card 	24999295
scalar barabasi_100nodes_network.content_distribution 	repo-2_price 	0
scalar barabasi_100nodes_network.content_distribution 	repo-3_card 	24997880
scalar barabasi_100nodes_network.content_distribution 	repo-3_price 	0
scalar barabasi_100nodes_network.content_distribution 	repo-4_card 	0
scalar barabasi_100nodes_network.content_distribution 	repo-4_price 	0
scalar barabasi_100nodes_network.content_distribution 	repo-5_card 	0
scalar barabasi_100nodes_network.content_distribution 	repo-5_price 	0
scalar barabasi_100nodes_network.content_distribution 	repo-6_card 	0
scalar barabasi_100nodes_network.content_distribution 	repo-6_price 	0
scalar barabasi_100nodes_network.content_distribution 	repo-7_card 	0
scalar barabasi_100nodes_network.content_distribution 	repo-7_price 	0
scalar barabasi_100nodes_network.content_distribution 	repo-8_card 	0
scalar barabasi_100nodes_network.content_distribution 	repo-8_price 	0
scalar barabasi_100nodes_network.content_distribution 	repo-9_card 	0
scalar barabasi_100nodes_network.content_distribution 	repo-9_price 	0
scalar barabasi_100nodes_network.content_distribution 	repo-10_card 	0
scalar barabasi_100nodes_network.content_distribution 	repo-10_price 	0
scalar barabasi_100nodes_network.content_distribution 	repo-11_card 	0
scalar barabasi_100nodes_network.content_distribution 	repo-11_price 	0
scalar barabasi_100nodes_network.content_distribution 	repo-12_card 	0
scalar barabasi_100nodes_network.content_distribution 	repo-12_price 	0
scalar barabasi_100nodes_network.content_distribution 	repo-13_card 	0
scalar barabasi_100nodes_network.content_distribution 	repo-13_price 	0
scalar barabasi_100nodes_network.content_distribution 	repo-14_card 	0
scalar barabasi_100nodes_network.content_distribution 	repo-14_price 	0
scalar barabasi_100nodes_network.content_distribution 	repo-15_card 	0
scalar barabasi_100nodes_network.content_distribution 	repo-15_price 	0
scalar barabasi_100nodes_network.content_distribution 	repo-16_card 	0
scalar barabasi_100nodes_network.content_distribution 	repo-16_price 	0
scalar barabasi_100nodes_network.content_distribution 	repo-17_card 	0
scalar barabasi_100nodes_network.content_distribution 	repo-17_price 	0
scalar barabasi_100nodes_network.content_distribution 	repo-18_card 	0
scalar barabasi_100nodes_network.content_distribution 	repo-18_price 	0
scalar barabasi_100nodes_network.content_distribution 	repo-19_card 	0
scalar barabasi_100nodes_network.content_distribution 	repo-19_price 	0
scalar barabasi_100nodes_network.content_distribution 	repo-20_card 	0
scalar barabasi_100nodes_network.content_distribution 	repo-20_price 	0
scalar barabasi_100nodes_network.content_distribution 	repo-21_card 	0
scalar barabasi_100nodes_network.content_distribution 	repo-21_price 	0
scalar barabasi_100nodes_network.content_distribution 	repo-22_card 	0
scalar barabasi_100nodes_network.content_distribution 	repo-22_price 	0
scalar barabasi_100nodes_network.content_distribution 	repo-23_card 	0
scalar barabasi_100nodes_network.content_distribution 	repo-23_price 	0
scalar barabasi_100nodes_network.content_distribution 	repo-24_card 	0
scalar barabasi_100nodes_network.content_distribution 	repo-24_price 	0
scalar barabasi_100nodes_network.content_distribution 	repo-25_card 	0
scalar barabasi_100nodes_network.content_distribution 	repo-25_price 	0
scalar barabasi_100nodes_network.content_distribution 	repo-26_card 	0
scalar barabasi_100nodes_network.content_distribution 	repo-26_price 	0
scalar barabasi_100nodes_network.content_distribution 	repo-27_card 	0
scalar barabasi_100nodes_network.content_distribution 	repo-27_price 	0
scalar barabasi_100nodes_network.content_distribution 	repo-28_card 	0
scalar barabasi_100nodes_network.content_distribution 	repo-28_price 	0
scalar barabasi_100nodes_network.content_distribution 	repo-29_card 	0
scalar barabasi_100nodes_network.content_distribution 	repo-29_price 	0
scalar barabasi_100nodes_network.content_distribution 	repo-30_card 	0
scalar barabasi_100nodes_network.content_distribution 	repo-30_price 	0
scalar barabasi_100nodes_network.content_distribution 	repo-31_card 	0
scalar barabasi_100nodes_network.content_distribution 	repo-31_price 	0
scalar barabasi_100nodes_network.content_distribution 	repo-32_card 	0
scalar barabasi_100nodes_network.content_distribution 	repo-32_price 	0
scalar barabasi_100nodes_network.content_distribution 	repo-33_card 	0
scalar barabasi_100nodes_network.content_distribution 	repo-33_price 	0
scalar barabasi_100nodes_network.content_distribution 	repo-34_card 	0
scalar barabasi_100nodes_network.content_distribution 	repo-34_price 	0
scalar barabasi_100nodes_network.content_distribution 	repo-35_card 	0
scalar barabasi_100nodes_network.content_distribution 	repo-35_price 	0
scalar barabasi_100nodes_network.content_distribution 	repo-36_card 	0
scalar barabasi_100nodes_network.content_distribution 	repo-36_price 	0
scalar barabasi_100nodes_network.content_distribution 	repo-37_card 	0
scalar barabasi_100nodes_network.content_distribution 	repo-37_price 	0
scalar barabasi_100nodes_network.content_distribution 	repo-38_card 	0
scalar barabasi_100nodes_network.content_distribution 	repo-38_price 	0
scalar barabasi_100nodes_network.content_distribution 	repo-39_card 	0
scalar barabasi_100nodes_network.content_distribution 	repo-39_price 	0
scalar barabasi_100nodes_network.content_distribution 	repo-40_card 	0
scalar barabasi_100nodes_network.content_distribution 	repo-40_price 	0
scalar barabasi_100nodes_network.content_distribution 	repo-41_card 	0
scalar barabasi_100nodes_network.content_distribution 	repo-41_price 	0
scalar barabasi_100nodes_network.content_distribution 	repo-42_card 	0
scalar barabasi_100nodes_network.content_distribution 	repo-42_price 	0
scalar barabasi_100nodes_network.content_distribution 	repo-43_card 	0
scalar barabasi_100nodes_network.content_distribution 	repo-43_price 	0
scalar barabasi_100nodes_network.content_distribution 	repo-44_card 	0
scalar barabasi_100nodes_network.content_distribution 	repo-44_price 	0
scalar barabasi_100nodes_network.content_distribution 	repo-45_card 	0
scalar barabasi_100nodes_network.content_distribution 	repo-45_price 	0
scalar barabasi_100nodes_network.content_distribution 	repo-46_card 	0
scalar barabasi_100nodes_network.content_distribution 	repo-46_price 	0
scalar barabasi_100nodes_network.content_distribution 	repo-47_card 	0
scalar barabasi_100nodes_network.content_distribution 	repo-47_price 	0
scalar barabasi_100nodes_network.content_distribution 	repo-48_card 	0
scalar barabasi_100nodes_network.content_distribution 	repo-48_price 	0
scalar barabasi_100nodes_network.content_distribution 	repo-49_card 	0
scalar barabasi_100nodes_network.content_distribution 	repo-49_price 	0
scalar barabasi_100nodes_network.content_distribution 	repo-50_card 	0
scalar barabasi_100nodes_network.content_distribution 	repo-50_price 	0
scalar barabasi_100nodes_network.content_distribution 	repo-51_card 	0
scalar barabasi_100nodes_network.content_distribution 	repo-51_price 	0
scalar barabasi_100nodes_network.content_distribution 	repo-52_card 	0
scalar barabasi_100nodes_network.content_distribution 	repo-52_price 	0
scalar barabasi_100nodes_network.content_distribution 	repo-53_card 	0
scalar barabasi_100nodes_network.content_distribution 	repo-53_price 	0
scalar barabasi_100nodes_network.content_distribution 	repo-54_card 	0
scalar barabasi_100nodes_network.content_distribution 	repo-54_price 	0
scalar barabasi_100nodes_network.content_distribution 	repo-55_card 	0
scalar barabasi_100nodes_network.content_distribution 	repo-55_price 	0
scalar barabasi_100nodes_network.content_distribution 	repo-56_card 	0
scalar barabasi_100nodes_network.content_distribution 	repo-56_price 	0
scalar barabasi_100nodes_network.content_distribution 	repo-57_card 	0
scalar barabasi_100nodes_network.content_distribution 	repo-57_price 	0
scalar barabasi_100nodes_network.content_distribution 	repo-58_card 	0
scalar barabasi_100nodes_network.content_distribution 	repo-58_price 	0
scalar barabasi_100nodes_network.content_distribution 	repo-59_card 	0
scalar barabasi_100nodes_network.content_distribution 	repo-59_price 	0
scalar barabasi_100nodes_network.content_distribution 	repo-60_card 	0
scalar barabasi_100nodes_network.content_distribution 	repo-60_price 	0
scalar barabasi_100nodes_network.content_distribution 	repo-61_card 	0
scalar barabasi_100nodes_network.content_distribution 	repo-61_price 	0
scalar barabasi_100nodes_network.content_distribution 	repo-62_card 	0
scalar barabasi_100nodes_network.content_distribution 	repo-62_price 	0
scalar barabasi_100nodes_network.content_distribution 	repo-63_card 	0
scalar barabasi_100nodes_network.content_distribution 	repo-63_price 	0
scalar barabasi_100nodes_network.content_distribution 	repo-64_card 	0
scalar barabasi_100nodes_network.content_distribution 	repo-64_price 	0
scalar barabasi_100nodes_network.content_distribution 	repo-65_card 	0
scalar barabasi_100nodes_network.content_distribution 	repo-65_price 	0
scalar barabasi_100nodes_network.content_distribution 	repo-66_card 	0
scalar barabasi_100nodes_network.content_distribution 	repo-66_price 	0
scalar barabasi_100nodes_network.content_distribution 	repo-67_card 	0
scalar barabasi_100nodes_network.content_distribution 	repo-67_price 	0
scalar barabasi_100nodes_network.content_distribution 	repo-68_card 	0
scalar barabasi_100nodes_network.content_distribution 	repo-68_price 	0
scalar barabasi_100nodes_network.content_distribution 	repo-69_card 	0
scalar barabasi_100nodes_network.content_distribution 	repo-69_price 	0
scalar barabasi_100nodes_network.content_distribution 	repo-70_card 	0
scalar barabasi_100nodes_network.content_distribution 	repo-70_price 	0
scalar barabasi_100nodes_network.content_distribution 	repo-71_card 	0
scalar barabasi_100nodes_network.content_distribution 	repo-71_price 	0
scalar barabasi_100nodes_network.content_distribution 	repo-72_card 	0
scalar barabasi_100nodes_network.content_distribution 	repo-72_price 	0
scalar barabasi_100nodes_network.content_distribution 	repo-73_card 	0
scalar barabasi_100nodes_network.content_distribution 	repo-73_price 	0
scalar barabasi_100nodes_network.content_distribution 	repo-74_card 	0
scalar barabasi_100nodes_network.content_distribution 	repo-74_price 	0
scalar barabasi_100nodes_network.content_distribution 	repo-75_card 	0
scalar barabasi_100nodes_network.content_distribution 	repo-75_price 	0
scalar barabasi_100nodes_network.content_distribution 	repo-76_card 	0
scalar barabasi_100nodes_network.content_distribution 	repo-76_price 	0
scalar barabasi_100nodes_network.content_distribution 	repo-77_card 	0
scalar barabasi_100nodes_network.content_distribution 	repo-77_price 	0
scalar barabasi_100nodes_network.content_distribution 	repo-78_card 	0
scalar barabasi_100nodes_network.content_distribution 	repo-78_price 	0
scalar barabasi_100nodes_network.content_distribution 	repo-79_card 	0
scalar barabasi_100nodes_network.content_distribution 	repo-79_price 	0
scalar barabasi_100nodes_network.content_distribution 	repo-80_card 	0
scalar barabasi_100nodes_network.content_distribution 	repo-80_price 	0
scalar barabasi_100nodes_network.content_distribution 	repo-81_card 	0
scalar barabasi_100nodes_network.content_distribution 	repo-81_price 	0
scalar barabasi_100nodes_network.content_distribution 	repo-82_card 	0
scalar barabasi_100nodes_network.content_distribution 	repo-82_price 	0
scalar barabasi_100nodes_network.content_distribution 	repo-83_card 	0
scalar barabasi_100nodes_network.content_distribution 	repo-83_price 	0
scalar barabasi_100nodes_network.content_distribution 	repo-84_card 	0
scalar barabasi_100nodes_network.content_distribution 	repo-84_price 	0
scalar barabasi_100nodes_network.content_distribution 	repo-85_card 	0
scalar barabasi_100nodes_network.content_distribution 	repo-85_price 	0
scalar barabasi_100nodes_network.content_distribution 	repo-86_card 	0
scalar barabasi_100nodes_network.content_distribution 	repo-86_price 	0
scalar barabasi_100nodes_network.content_distribution 	repo-87_card 	0
scalar barabasi_100nodes_network.content_distribution 	repo-87_price 	0
scalar barabasi_100nodes_network.content_distribution 	repo-88_card 	0
scalar barabasi_100nodes_network.content_distribution 	repo-88_price 	0
scalar barabasi_100nodes_network.content_distribution 	repo-89_card 	0
scalar barabasi_100nodes_network.content_distribution 	repo-89_price 	0
scalar barabasi_100nodes_network.content_distribution 	repo-90_card 	0
scalar barabasi_100nodes_network.content_distribution 	repo-90_price 	0
scalar barabasi_100nodes_network.content_distribution 	repo-91_card 	0
scalar barabasi_100nodes_network.content_distribution 	repo-91_price 	0
scalar barabasi_100nodes_network.content_distribution 	repo-92_card 	0
scalar barabasi_100nodes_network.content_distribution 	repo-92_price 	0
scalar barabasi_100nodes_network.content_distribution 	repo-93_card 	0
scalar barabasi_100nodes_network.content_distribution 	repo-93_price 	0
scalar barabasi_100nodes_network.content_distribution 	repo-94_card 	0
scalar barabasi_100nodes_network.content_distribution 	repo-94_price 	0
scalar barabasi_100nodes_network.content_distribution 	repo-95_card 	0
scalar barabasi_100nodes_network.content_distribution 	repo-95_price 	0
scalar barabasi_100nodes_network.content_distribution 	repo-96_card 	0
scalar barabasi_100nodes_network.content_distribution 	repo-96_price 	0
scalar barabasi_100nodes_network.content_distribution 	repo-97_card 	0
scalar barabasi_100nodes_network.content_distribution 	repo-97_price 	0
scalar barabasi_100nodes_network.content_distribution 	repo-98_card 	0
scalar barabasi_100nodes_network.content_distribution 	repo-98_price 	0
scalar barabasi_100nodes_network.content_distribution 	repo-99_card 	0
scalar barabasi_100nodes_network.content_distribution 	repo-99_price 	0
scalar barabasi_100nodes_network.statistics 	p_hit 	0.34826797318013
scalar barabasi_100nodes_network.statistics 	interests 	1120943.67
scalar barabasi_100nodes_network.statistics 	data 	596746.55
scalar barabasi_100nodes_network.statistics 	hdistance 	1.3936743167953
scalar barabasi_100nodes_network.statistics 	avg_time 	0
scalar barabasi_100nodes_network.statistics 	downloads 	52419710
scalar barabasi_100nodes_network.statistics 	total_cost 	0
scalar barabasi_100nodes_network.statistics 	total_replicas 	100000000
scalar barabasi_100nodes_network.statistics 	"representations_downloaded 1:0:0:0:0:" 	0
scalar barabasi_100nodes_network.statistics 	"slots_per_representation 100:233:500:833:1167:" 	0
scalar barabasi_100nodes_network.statistics 	inner_hit 	0.7447366267383
scalar barabasi_100nodes_network.statistics 	execution_time 	16257
scalar barabasi_100nodes_network.node[0].core_layer 	interests[0] 	5612280
scalar barabasi_100nodes_network.node[0].core_layer 	data[0] 	3633640
scalar barabasi_100nodes_network.node[0].core_layer 	slots_sent[face$o[1]->client[0]] 	52422600
scalar barabasi_100nodes_network.node[0].core_layer 	slots_sent[face$o[2]->node[1]] 	23802300
scalar barabasi_100nodes_network.node[0].core_layer 	slots_sent[face$o[3]->node[2]] 	0
scalar barabasi_100nodes_network.node[0].core_layer 	slots_sent[face$o[4]->node[5]] 	79886900
scalar barabasi_100nodes_network.node[0].core_layer 	slots_sent[face$o[5]->node[10]] 	43763100
scalar barabasi_100nodes_network.node[0].core_layer 	slots_sent[face$o[6]->node[11]] 	23750200
scalar barabasi_100nodes_network.node[0].core_layer 	slots_sent[face$o[7]->node[15]] 	62131000
scalar barabasi_100nodes_network.node[0].core_layer 	slots_sent[face$o[8]->node[21]] 	62342000
scalar barabasi_100nodes_network.node[0].core_layer 	slots_sent[face$o[9]->node[22]] 	23759100
scalar barabasi_100nodes_network.node[0].core_layer 	slots_sent[face$o[10]->node[28]] 	23785700
scalar barabasi_100nodes_network.node[0].core_layer 	slots_sent[face$o[11]->node[37]] 	23745100
scalar barabasi_100nodes_network.node[0].core_layer 	slots_sent[face$o[12]->node[44]] 	23763100
scalar barabasi_100nodes_network.node[0].core_layer 	slots_sent[face$o[13]->node[58]] 	43799600
scalar barabasi_100nodes_network.node[0].core_layer 	slots_sent[face$o[14]->node[73]] 	32759500
scalar barabasi_100nodes_network.node[0].core_layer 	slots_sent[face$o[15]->node[74]] 	17807100
scalar barabasi_100nodes_network.node[0].core_layer 	slots_sent[face$o[16]->node[93]] 	23710700
scalar barabasi_100nodes_network.node[0].content_store 	p_hit[0] 	0.35255546765308
scalar barabasi_100nodes_network.node[0].content_store 	hits[0] 	1978640
scalar barabasi_100nodes_network.node[0].content_store 	misses[0] 	3633640
scalar barabasi_100nodes_network.node[0].content_store 	decision_yes[0] 	3633640
scalar barabasi_100nodes_network.node[0].content_store 	decision_no[0] 	0
scalar barabasi_100nodes_network.node[0].content_store 	decision_ratio[0] 	1
scalar barabasi_100nodes_network.node[1].core_layer 	interests[1] 	525015
scalar barabasi_100nodes_network.node[1].core_layer 	data[1] 	238023
scalar barabasi_100nodes_network.node[1].core_layer 	slots_sent[face$o[1]->client[1]] 	52501500
scalar barabasi_100nodes_network.node[1].core_layer 	slots_sent[face$o[2]->node[0]] 	0
scalar barabasi_100nodes_network.node[1].content_store 	p_hit[1] 	0.54663581040542
scalar barabasi_100nodes_network.node[1].content_store 	hits[1] 	286992
scalar barabasi_100nodes_network.node[1].content_store 	misses[1] 	238023
scalar barabasi_100nodes_network.node[1].content_store 	decision_yes[1] 	238023
scalar barabasi_100nodes_network.node[1].content_store 	decision_no[1] 	0
scalar barabasi_100nodes_network.node[1].content_store 	decision_ratio[1] 	1
scalar barabasi_100nodes_network.node[2].core_layer 	interests[2] 	16279199
scalar barabasi_100nodes_network.node[2].core_layer 	data[2] 	10033486
scalar barabasi_100nodes_network.node[2].core_layer 	slots_sent[face$o[1]->client[2]] 	52325000
scalar barabasi_100nodes_network.node[2].core_layer 	slots_sent[face$o[2]->node[0]] 	363364000
scalar barabasi_100nodes_network.node[2].core_layer 	slots_sent[face$o[3]->node[3]] 	32713600
scalar barabasi_100nodes_network.node[2].core_layer 	slots_sent[face$o[4]->node[4]] 	80744600
scalar barabasi_100nodes_network.node[2].core_layer 	slots_sent[face$o[5]->node[6]] 	23775800
scalar barabasi_100nodes_network.node[2].core_layer 	slots_sent[face$o[6]->node[7]] 	162756900
scalar barabasi_100nodes_network.node[2].core_layer 	slots_sent[face$o[7]->node[8]] 	144429500
scalar barabasi_100nodes_network.node[2].core_layer 	slots_sent[face$o[8]->node[13]] 	59328200
scalar barabasi_100nodes_network.node[2].core_layer 	slots_sent[face$o[9]->node[16]] 	128751600
scalar barabasi_100nodes_network.node[2].core_layer 	slots_sent[face$o[10]->node[18]] 	59832400
scalar barabasi_100nodes_network.node[2].core_layer 	slots_sent[face$o[11]->node[25]] 	32828600
scalar barabasi_100nodes_network.node[2].core_layer 	slots_sent[face$o[12]->node[26]] 	70742500
scalar barabasi_100nodes_network.node[2].core_layer 	slots_sent[face$o[13]->node[29]] 	17832900
scalar barabasi_100nodes_network.node[2].core_layer 	slots_sent[face$o[14]->node[32]] 	62226100
scalar barabasi_100nodes_network.node[2].core_layer 	slots_sent[face$o[15]->node[33]] 	23743800
scalar barabasi_100nodes_network.node[2].core_layer 	slots_sent[face$o[16]->node[34]] 	23769700
scalar barabasi_100nodes_network.node[2].core_layer 	slots_sent[face$o[17]->node[36]] 	43808200
scalar barabasi_100nodes_network.node[2].core_layer 	slots_sent[face$o[18]->node[41]] 	120932700
scalar barabasi_100nodes_network.node[2].core_layer 	slots_sent[face$o[19]->node[45]] 	23754100
scalar barabasi_100nodes_network.node[2].core_layer 	slots_sent[face$o[20]->node[59]] 	23815200
scalar barabasi_100nodes_network.node[2].core_layer 	slots_sent[face$o[21]->node[62]] 	52661400
scalar barabasi_100nodes_network.node[2].core_layer 	slots_sent[face$o[22]->node[79]] 	23783100
scalar barabasi_100nodes_network.node[2].content_store 	p_hit[2] 	0.38366218141323
scalar barabasi_100nodes_network.node[2].content_store 	hits[2] 	6245713
scalar barabasi_100nodes_network.node[2].content_store 	misses[2] 	10033486
scalar barabasi_100nodes_network.node[2].content_store 	decision_yes[2] 	10033486
scalar barabasi_100nodes_network.node[2].content_store 	decision_no[2] 	0
scalar barabasi_100nodes_network.node[2].content_store 	decision_ratio[2] 	1
scalar barabasi_100nodes_network.node[3].core_layer 	interests[3] 	762003
scalar barabasi_100nodes_network.node[3].core_layer 	repo_load[3] 	180940
scalar barabasi_100nodes_network.node[3].core_layer 	data[3] 	327136
scalar barabasi_100nodes_network.node[3].core_layer 	slots_sent[face$o[1]->client[3]] 	52427400
scalar barabasi_100nodes_network.node[3].core_layer 	slots_sent[face$o[2]->node[2]] 	0
scalar barabasi_100nodes_network.node[3].core_layer 	slots_sent[face$o[3]->node[52]] 	23772900
scalar barabasi_100nodes_network.node[3].content_store 	p_hit[3] 	0.33323622085477
scalar barabasi_100nodes_network.node[3].content_store 	hits[3] 	253927
scalar barabasi_100nodes_network.node[3].content_store 	misses[3] 	508076
scalar barabasi_100nodes_network.node[3].content_store 	decision_yes[3] 	327136
scalar barabasi_100nodes_network.node[3].content_store 	decision_no[3] 	180940
scalar barabasi_100nodes_network.node[3].content_store 	decision_ratio[3] 	0.6438721766035
scalar barabasi_100nodes_network.node[4].core_layer 	interests[4] 	1587692
scalar barabasi_100nodes_network.node[4].core_layer 	repo_load[4] 	391202
scalar barabasi_100nodes_network.node[4].core_layer 	data[4] 	807446
scalar barabasi_100nodes_network.node[4].core_layer 	slots_sent[face$o[1]->client[4]] 	52521600
scalar barabasi_100nodes_network.node[4].core_layer 	slots_sent[face$o[2]->node[2]] 	0
scalar barabasi_100nodes_network.node[4].core_layer 	slots_sent[face$o[3]->node[27]] 	43644800
scalar barabasi_100nodes_network.node[4].core_layer 	slots_sent[face$o[4]->node[30]] 	38802600
scalar barabasi_100nodes_network.node[4].core_layer 	slots_sent[face$o[5]->node[85]] 	23800200
scalar barabasi_100nodes_network.node[4].content_store 	p_hit[4] 	0.24503745058865
scalar barabasi_100nodes_network.node[4].content_store 	hits[4] 	389044
scalar barabasi_100nodes_network.node[4].content_store 	misses[4] 	1198648
scalar barabasi_100nodes_network.node[4].content_store 	decision_yes[4] 	807446
scalar barabasi_100nodes_network.node[4].content_store 	decision_no[4] 	391202
scalar barabasi_100nodes_network.node[4].content_store 	decision_ratio[4] 	0.67363062383619
scalar barabasi_100nodes_network.node[5].core_layer 	interests[5] 	1200096
scalar barabasi_100nodes_network.node[5].core_layer 	data[5] 	798869
scalar barabasi_100nodes_network.node[5].core_layer 	slots_sent[face$o[1]->client[5]] 	52494200
scalar barabasi_100nodes_network.node[5].core_layer 	slots_sent[face$o[2]->node[0]] 	0
scalar barabasi_100nodes_network.node[5].core_layer 	slots_sent[face$o[3]->node[9]] 	23760800
scalar barabasi_100nodes_network.node[5].core_layer 	slots_sent[face$o[4]->node[35]] 	43754600
scalar barabasi_100nodes_network.node[5].content_store 	p_hit[5] 	0.33432908700637
scalar barabasi_100nodes_network.node[5].content_store 	hits[5] 	401227
scalar barabasi_100nodes_network.node[5].content_store 	misses[5] 	798869
scalar barabasi_100nodes_network.node[5].content_store 	decision_yes[5] 	798869
scalar barabasi_100nodes_network.node[5].content_store 	decision_no[5] 	0
scalar barabasi_100nodes_network.node[5].content_store 	decision_ratio[5] 	1
scalar barabasi_100nodes_network.node[6].core_layer 	interests[6] 	523920
scalar barabasi_100nodes_network.node[6].core_layer 	data[6] 	237758
scalar barabasi_100nodes_network.node[6].core_layer 	slots_sent[face$o[1]->client[6]] 	52392000
scalar barabasi_100nodes_network.node[6].core_layer 	slots_sent[face$o[2]->node[2]] 	0
scalar barabasi_100nodes_network.node[6].content_store 	p_hit[6] 	0.54619407543136
scalar barabasi_100nodes_network.node[6].content_store 	hits[6] 	286162
scalar barabasi_100nodes_network.node[6].content_store 	misses[6] 	237758
scalar barabasi_100nodes_network.node[6].content_store 	decision_yes[6] 	237758
scalar barabasi_100nodes_network.node[6].content_store 	decision_no[6] 	0
scalar barabasi_100nodes_network.node[6].content_store 	decision_ratio[6] 	1
scalar barabasi_100nodes_network.node[7].core_layer 	interests[7] 	4990857
scalar barabasi_100nodes_network.node[7].core_layer 	data[7] 	4147300
scalar barabasi_100nodes_network.node[7].core_layer 	slots_sent[face$o[1]->client[7]] 	52402300
scalar barabasi_100nodes_network.node[7].core_layer 	slots_sent[face$o[2]->node[2]] 	236597000
scalar barabasi_100nodes_network.node[7].core_layer 	slots_sent[face$o[3]->node[23]] 	96702800
scalar barabasi_100nodes_network.node[7].core_layer 	slots_sent[face$o[4]->node[31]] 	65812300
scalar barabasi_100nodes_network.node[7].core_layer 	slots_sent[face$o[5]->node[49]] 	23830600
scalar barabasi_100nodes_network.node[7].core_layer 	slots_sent[face$o[6]->node[90]] 	23740700
scalar barabasi_100nodes_network.node[7].content_store 	p_hit[7] 	0.16902047083297
scalar barabasi_100nodes_network.node[7].content_store 	hits[7] 	843557
scalar barabasi_100nodes_network.node[7].content_store 	misses[7] 	4147300
scalar barabasi_100nodes_network.node[7].content_store 	decision_yes[7] 	4147300
scalar barabasi_100nodes_network.node[7].content_store 	decision_no[7] 	0
scalar barabasi_100nodes_network.node[7].content_store 	decision_ratio[7] 	1
scalar barabasi_100nodes_network.node[8].core_layer 	interests[8] 	2151171
scalar barabasi_100nodes_network.node[8].core_layer 	data[8] 	1444295
scalar barabasi_100nodes_network.node[8].core_layer 	slots_sent[face$o[1]->client[8]] 	52368400
scalar barabasi_100nodes_network.node[8].core_layer 	slots_sent[face$o[2]->node[2]] 	0
scalar barabasi_100nodes_network.node[8].core_layer 	slots_sent[face$o[3]->node[12]] 	23799900
scalar barabasi_100nodes_network.node[8].core_layer 	slots_sent[face$o[4]->node[14]] 	23852900
scalar barabasi_100nodes_network.node[8].core_layer 	slots_sent[face$o[5]->node[17]] 	23786300
scalar barabasi_100nodes_network.node[8].core_layer 	slots_sent[face$o[6]->node[39]] 	43652500
scalar barabasi_100nodes_network.node[8].core_layer 	slots_sent[face$o[7]->node[61]] 	23810500
scalar barabasi_100nodes_network.node[8].core_layer 	slots_sent[face$o[8]->node[66]] 	23846600
scalar barabasi_100nodes_network.node[8].content_store 	p_hit[8] 	0.32860056220542
scalar barabasi_100nodes_network.node[8].content_store 	hits[8] 	706876
scalar barabasi_100nodes_network.node[8].content_store 	misses[8] 	1444295
scalar barabasi_100nodes_network.node[8].content_store 	decision_yes[8] 	1444295
scalar barabasi_100nodes_network.node[8].content_store 	decision_no[8] 	0
scalar barabasi_100nodes_network.node[8].content_store 	decision_ratio[8] 	1
scalar barabasi_100nodes_network.node[9].core_layer 	interests[9] 	523954
scalar barabasi_100nodes_network.node[9].core_layer 	data[9] 	237608
scalar barabasi_100nodes_network.node[9].core_layer 	slots_sent[face$o[1]->client[9]] 	52395400
scalar barabasi_100nodes_network.node[9].core_layer 	slots_sent[face$o[2]->node[5]] 	0
scalar barabasi_100nodes_network.node[9].content_store 	p_hit[9] 	0.54650980811293
scalar barabasi_100nodes_network.node[9].content_store 	hits[9] 	286346
scalar barabasi_100nodes_network.node[9].content_store 	misses[9] 	237608
scalar barabasi_100nodes_network.node[9].content_store 	decision_yes[9] 	237608
scalar barabasi_100nodes_network.node[9].content_store 	decision_no[9] 	0
scalar barabasi_100nodes_network.node[9].content_store 	decision_ratio[9] 	1
scalar barabasi_100nodes_network.node[10].core_layer 	interests[10] 	762317
scalar barabasi_100nodes_network.node[10].core_layer 	data[10] 	437631
scalar barabasi_100nodes_network.node[10].core_layer 	slots_sent[face$o[1]->client[10]] 	52411100
scalar barabasi_100nodes_network.node[10].core_layer 	slots_sent[face$o[2]->node[0]] 	0
scalar barabasi_100nodes_network.node[10].core_layer 	slots_sent[face$o[3]->node[71]] 	23820600
scalar barabasi_100nodes_network.node[10].content_store 	p_hit[10] 	0.4259199257002
scalar barabasi_100nodes_network.node[10].content_store 	hits[10] 	324686
scalar barabasi_100nodes_network.node[10].content_store 	misses[10] 	437631
scalar barabasi_100nodes_network.node[10].content_store 	decision_yes[10] 	437631
scalar barabasi_100nodes_network.node[10].content_store 	decision_no[10] 	0
scalar barabasi_100nodes_network.node[10].content_store 	decision_ratio[10] 	1
scalar barabasi_100nodes_network.node[11].core_layer 	interests[11] 	523332
scalar barabasi_100nodes_network.node[11].core_layer 	data[11] 	237502
scalar barabasi_100nodes_network.node[11].core_layer 	slots_sent[face$o[1]->client[11]] 	52333200
scalar barabasi_100nodes_network.node[11].core_layer 	slots_sent[face$o[2]->node[0]] 	0
scalar barabasi_100nodes_network.node[11].content_store 	p_hit[11] 	0.54617336604679
scalar barabasi_100nodes_network.node[11].content_store 	hits[11] 	285830
scalar barabasi_100nodes_network.node[11].content_store 	misses[11] 	237502
scalar barabasi_100nodes_network.node[11].content_store 	decision_yes[11] 	237502
scalar barabasi_100nodes_network.node[11].content_store 	decision_no[11] 	0
scalar barabasi_100nodes_network.node[11].content_store 	decision_ratio[11] 	1
scalar barabasi_100nodes_network.node[12].core_layer 	interests[12] 	524519
scalar barabasi_100nodes_network.node[12].core_layer 	data[12] 	237999
scalar barabasi_100nodes_network.node[12].core_layer 	slots_sent[face$o[1]->client[12]] 	52451900
scalar barabasi_100nodes_network.node[12].core_layer 	slots_sent[face$o[2]->node[8]] 	0
scalar barabasi_100nodes_network.node[12].content_store 	p_hit[12] 	0.54625285261354
scalar barabasi_100nodes_network.node[12].content_store 	hits[12] 	286520
scalar barabasi_100nodes_network.node[12].content_store 	misses[12] 	237999
scalar barabasi_100nodes_network.node[12].content_store 	decision_yes[12] 	237999
scalar barabasi_100nodes_network.node[12].content_store 	decision_no[12] 	0
scalar barabasi_100nodes_network.node[12].content_store 	decision_ratio[12] 	1
scalar barabasi_100nodes_network.node[13].core_layer 	interests[13] 	3625062
scalar barabasi_100nodes_network.node[13].core_layer 	data[13] 	3135647
scalar barabasi_100nodes_network.node[13].core_layer 	slots_sent[face$o[1]->client[13]] 	52473500
scalar barabasi_100nodes_network.node[13].core_layer 	slots_sent[face$o[2]->node[2]] 	245444800
scalar barabasi_100nodes_network.node[13].core_layer 	slots_sent[face$o[3]->node[67]] 	17875000
scalar barabasi_100nodes_network.node[13].core_layer 	slots_sent[face$o[4]->node[78]] 	46712900
scalar barabasi_100nodes_network.node[13].content_store 	p_hit[13] 	0.13500872536801
scalar barabasi_100nodes_network.node[13].content_store 	hits[13] 	489415
scalar barabasi_100nodes_network.node[13].content_store 	misses[13] 	3135647
scalar barabasi_100nodes_network.node[13].content_store 	decision_yes[13] 	3135647
scalar barabasi_100nodes_network.node[13].content_store 	decision_no[13] 	0
scalar barabasi_100nodes_network.node[13].content_store 	decision_ratio[13] 	1
scalar barabasi_100nodes_network.node[14].core_layer 	interests[14] 	525097
scalar barabasi_100nodes_network.node[14].core_layer 	data[14] 	238529
scalar barabasi_100nodes_network.node[14].core_layer 	slots_sent[face$o[1]->client[14]] 	52509700
scalar barabasi_100nodes_network.node[14].core_layer 	slots_sent[face$o[2]->node[8]] 	0
scalar barabasi_100nodes_network.node[14].content_store 	p_hit[14] 	0.54574297701187
scalar barabasi_100nodes_network.node[14].content_store 	hits[14] 	286568
scalar barabasi_100nodes_network.node[14].content_store 	misses[14] 	238529
scalar barabasi_100nodes_network.node[14].content_store 	decision_yes[14] 	238529
scalar barabasi_100nodes_network.node[14].content_store 	decision_no[14] 	0
scalar barabasi_100nodes_network.node[14].content_store 	decision_ratio[14] 	1
scalar barabasi_100nodes_network.node[15].core_layer 	interests[15] 	998456
scalar barabasi_100nodes_network.node[15].core_layer 	data[15] 	621310
scalar barabasi_100nodes_network.node[15].core_layer 	slots_sent[face$o[1]->client[15]] 	52352300
scalar barabasi_100nodes_network.node[15].core_layer 	slots_sent[face$o[2]->node[0]] 	0
scalar barabasi_100nodes_network.node[15].core_layer 	slots_sent[face$o[3]->node[40]] 	23771700
scalar barabasi_100nodes_network.node[15].core_layer 	slots_sent[face$o[4]->node[56]] 	23721600
scalar barabasi_100nodes_network.node[15].content_store 	p_hit[15] 	0.37772921390627
scalar barabasi_100nodes_network.node[15].content_store 	hits[15] 	377146
scalar barabasi_100nodes_network.node[15].content_store 	misses[15] 	621310
scalar barabasi_100nodes_network.node[15].content_store 	decision_yes[15] 	621310
scalar barabasi_100nodes_network.node[15].content_store 	decision_no[15] 	0
scalar barabasi_100nodes_network.node[15].content_store 	decision_ratio[15] 	1
scalar barabasi_100nodes_network.node[16].core_layer 	interests[16] 	1727281
scalar barabasi_100nodes_network.node[16].core_layer 	data[16] 	1287516
scalar barabasi_100nodes_network.node[16].core_layer 	slots_sent[face$o[1]->client[16]] 	52388100
scalar barabasi_100nodes_network.node[16].core_layer 	slots_sent[face$o[2]->node[2]] 	0
scalar barabasi_100nodes_network.node[16].core_layer 	slots_sent[face$o[3]->node[19]] 	96605200
scalar barabasi_100nodes_network.node[16].core_layer 	slots_sent[face$o[4]->node[20]] 	23734800
scalar barabasi_100nodes_network.node[16].content_store 	p_hit[16] 	0.25459957007574
scalar barabasi_100nodes_network.node[16].content_store 	hits[16] 	439765
scalar barabasi_100nodes_network.node[16].content_store 	misses[16] 	1287516
scalar barabasi_100nodes_network.node[16].content_store 	decision_yes[16] 	1287516
scalar barabasi_100nodes_network.node[16].content_store 	decision_no[16] 	0
scalar barabasi_100nodes_network.node[16].content_store 	decision_ratio[16] 	1
scalar barabasi_100nodes_network.node[17].core_layer 	interests[17] 	524228
scalar barabasi_100nodes_network.node[17].core_layer 	data[17] 	237863
scalar barabasi_100nodes_network.node[17].core_layer 	slots_sent[face$o[1]->client[17]] 	52422800
scalar barabasi_100nodes_network.node[17].core_layer 	slots_sent[face$o[2]->node[8]] 	0
scalar barabasi_100nodes_network.node[17].content_store 	p_hit[17] 	0.54626040577764
scalar barabasi_100nodes_network.node[17].content_store 	hits[17] 	286365
scalar barabasi_100nodes_network.node[17].content_store 	misses[17] 	237863
scalar barabasi_100nodes_network.node[17].content_store 	decision_yes[17] 	237863
scalar barabasi_100nodes_network.node[17].content_store 	decision_no[17] 	0
scalar barabasi_100nodes_network.node[17].content_store 	decision_ratio[17] 	1
scalar barabasi_100nodes_network.node[18].core_layer 	interests[18] 	3718261
scalar barabasi_100nodes_network.node[18].core_layer 	data[18] 	3204122
scalar barabasi_100nodes_network.node[18].core_layer 	slots_sent[face$o[1]->client[18]] 	52374400
scalar barabasi_100nodes_network.node[18].core_layer 	slots_sent[face$o[2]->node[2]] 	254098500
scalar barabasi_100nodes_network.node[18].core_layer 	slots_sent[face$o[3]->node[53]] 	23759100
scalar barabasi_100nodes_network.node[18].core_layer 	slots_sent[face$o[4]->node[68]] 	17783800
scalar barabasi_100nodes_network.node[18].core_layer 	slots_sent[face$o[5]->node[72]] 	23810300
scalar barabasi_100nodes_network.node[18].content_store 	p_hit[18] 	0.13827404800255
scalar barabasi_100nodes_network.node[18].content_store 	hits[18] 	514139
scalar barabasi_100nodes_network.node[18].content_store 	misses[18] 	3204122
scalar barabasi_100nodes_network.node[18].content_store 	decision_yes[18] 	3204122
scalar barabasi_100nodes_network.node[18].content_store 	decision_no[18] 	0
scalar barabasi_100nodes_network.node[18].content_store 	decision_ratio[18] 	1
scalar barabasi_100nodes_network.node[19].core_layer 	interests[19] 	1474178
scalar barabasi_100nodes_network.node[19].core_layer 	data[19] 	966052
scalar barabasi_100nodes_network.node[19].core_layer 	slots_sent[face$o[1]->client[19]] 	52415800
scalar barabasi_100nodes_network.node[19].core_layer 	slots_sent[face$o[2]->node[16]] 	0
scalar barabasi_100nodes_network.node[19].core_layer 	slots_sent[face$o[3]->node[63]] 	23790900
scalar barabasi_100nodes_network.node[19].core_layer 	slots_sent[face$o[4]->node[70]] 	23734600
scalar barabasi_100nodes_network.node[19].core_layer 	slots_sent[face$o[5]->node[80]] 	23752100
scalar barabasi_100nodes_network.node[19].core_layer 	slots_sent[face$o[6]->node[89]] 	23724400
scalar barabasi_100nodes_network.node[19].content_store 	p_hit[19] 	0.34468429185621
scalar barabasi_100nodes_network.node[19].content_store 	hits[19] 	508126
scalar barabasi_100nodes_network.node[19].content_store 	misses[19] 	966052
scalar barabasi_100nodes_network.node[19].content_store 	decision_yes[19] 	966052
scalar barabasi_100nodes_network.node[19].content_store 	decision_no[19] 	0
scalar barabasi_100nodes_network.node[19].content_store 	decision_ratio[19] 	1
scalar barabasi_100nodes_network.node[20].core_layer 	interests[20] 	523358
scalar barabasi_100nodes_network.node[20].core_layer 	data[20] 	237348
scalar barabasi_100nodes_network.node[20].core_layer 	slots_sent[face$o[1]->client[20]] 	52335800
scalar barabasi_100nodes_network.node[20].core_layer 	slots_sent[face$o[2]->node[16]] 	0
scalar barabasi_100nodes_network.node[20].content_store 	p_hit[20] 	0.54649016543169
scalar barabasi_100nodes_network.node[20].content_store 	hits[20] 	286010
scalar barabasi_100nodes_network.node[20].content_store 	misses[20] 	237348
scalar barabasi_100nodes_network.node[20].content_store 	decision_yes[20] 	237348
scalar barabasi_100nodes_network.node[20].content_store 	decision_no[20] 	0
scalar barabasi_100nodes_network.node[20].content_store 	decision_ratio[20] 	1
scalar barabasi_100nodes_network.node[21].core_layer 	interests[21] 	1001377
scalar barabasi_100nodes_network.node[21].core_layer 	data[21] 	623420
scalar barabasi_100nodes_network.node[21].core_layer 	slots_sent[face$o[1]->client[21]] 	52493600
scalar barabasi_100nodes_network.node[21].core_layer 	slots_sent[face$o[2]->node[0]] 	0
scalar barabasi_100nodes_network.node[21].core_layer 	slots_sent[face$o[3]->node[24]] 	23817400
scalar barabasi_100nodes_network.node[21].core_layer 	slots_sent[face$o[4]->node[57]] 	23826700
scalar barabasi_100nodes_network.node[21].content_store 	p_hit[21] 	0.37743726888075
scalar barabasi_100nodes_network.node[21].content_store 	hits[21] 	377957
scalar barabasi_100nodes_network.node[21].content_store 	misses[21] 	623420
scalar barabasi_100nodes_network.node[21].content_store 	decision_yes[21] 	623420
scalar barabasi_100nodes_network.node[21].content_store 	decision_no[21] 	0
scalar barabasi_100nodes_network.node[21].content_store 	decision_ratio[21] 	1
scalar barabasi_100nodes_network.node[22].core_layer 	interests[22] 	523561
scalar barabasi_100nodes_network.node[22].core_layer 	data[22] 	237591
scalar barabasi_100nodes_network.node[22].core_layer 	slots_sent[face$o[1]->client[22]] 	52356100
scalar barabasi_100nodes_network.node[22].core_layer 	slots_sent[face$o[2]->node[0]] 	0
scalar barabasi_100nodes_network.node[22].content_store 	p_hit[22] 	0.54620187523517
scalar barabasi_100nodes_network.node[22].content_store 	hits[22] 	285970
scalar barabasi_100nodes_network.node[22].content_store 	misses[22] 	237591
scalar barabasi_100nodes_network.node[22].content_store 	decision_yes[22] 	237591
scalar barabasi_100nodes_network.node[22].content_store 	decision_no[22] 	0
scalar barabasi_100nodes_network.node[22].content_store 	decision_ratio[22] 	1
scalar barabasi_100nodes_network.node[23].core_layer 	interests[23] 	4374489
scalar barabasi_100nodes_network.node[23].core_layer 	data[23] 	3616805
scalar barabasi_100nodes_network.node[23].core_layer 	slots_sent[face$o[1]->client[23]] 	52475400
scalar barabasi_100nodes_network.node[23].core_layer 	slots_sent[face$o[2]->node[7]] 	251973100
scalar barabasi_100nodes_network.node[23].core_layer 	slots_sent[face$o[3]->node[46]] 	43766900
scalar barabasi_100nodes_network.node[23].core_layer 	slots_sent[face$o[4]->node[47]] 	17799700
scalar barabasi_100nodes_network.node[23].core_layer 	slots_sent[face$o[5]->node[51]] 	23728400
scalar barabasi_100nodes_network.node[23].core_layer 	slots_sent[face$o[6]->node[83]] 	23844800
scalar barabasi_100nodes_network.node[23].core_layer 	slots_sent[face$o[7]->node[86]] 	23860600
scalar barabasi_100nodes_network.node[23].content_store 	p_hit[23] 	0.17320514464661
scalar barabasi_100nodes_network.node[23].content_store 	hits[23] 	757684
scalar barabasi_100nodes_network.node[23].content_store 	misses[23] 	3616805
scalar barabasi_100nodes_network.node[23].content_store 	decision_yes[23] 	3616805
scalar barabasi_100nodes_network.node[23].content_store 	decision_no[23] 	0
scalar barabasi_100nodes_network.node[23].content_store 	decision_ratio[23] 	1
scalar barabasi_100nodes_network.node[24].core_layer 	interests[24] 	524486
scalar barabasi_100nodes_network.node[24].core_layer 	data[24] 	238174
scalar barabasi_100nodes_network.node[24].core_layer 	slots_sent[face$o[1]->client[24]] 	52448600
scalar barabasi_100nodes_network.node[24].core_layer 	slots_sent[face$o[2]->node[21]] 	0
scalar barabasi_100nodes_network.node[24].content_store 	p_hit[24] 	0.54589064341088
scalar barabasi_100nodes_network.node[24].content_store 	hits[24] 	286312
scalar barabasi_100nodes_network.node[24].content_store 	misses[24] 	238174
scalar barabasi_100nodes_network.node[24].content_store 	decision_yes[24] 	238174
scalar barabasi_100nodes_network.node[24].content_store 	decision_no[24] 	0
scalar barabasi_100nodes_network.node[24].content_store 	decision_ratio[24] 	1
scalar barabasi_100nodes_network.node[25].core_layer 	interests[25] 	3374742
scalar barabasi_100nodes_network.node[25].core_layer 	repo_load[25] 	2792871
scalar barabasi_100nodes_network.node[25].core_layer 	data[25] 	328286
scalar barabasi_100nodes_network.node[25].core_layer 	slots_sent[face$o[1]->client[25]] 	52442800
scalar barabasi_100nodes_network.node[25].core_layer 	slots_sent[face$o[2]->node[2]] 	267208300
scalar barabasi_100nodes_network.node[25].core_layer 	slots_sent[face$o[3]->node[38]] 	17823100
scalar barabasi_100nodes_network.node[25].content_store 	p_hit[25] 	0.075142040487836
scalar barabasi_100nodes_network.node[25].content_store 	hits[25] 	253585
scalar barabasi_100nodes_network.node[25].content_store 	misses[25] 	3121157
scalar barabasi_100nodes_network.node[25].content_store 	decision_yes[25] 	328286
scalar barabasi_100nodes_network.node[25].content_store 	decision_no[25] 	2792871
scalar barabasi_100nodes_network.node[25].content_store 	decision_ratio[25] 	0.10518086722328
scalar barabasi_100nodes_network.node[26].core_layer 	interests[26] 	1089970
scalar barabasi_100nodes_network.node[26].core_layer 	data[26] 	707425
scalar barabasi_100nodes_network.node[26].core_layer 	slots_sent[face$o[1]->client[26]] 	52431900
scalar barabasi_100nodes_network.node[26].core_layer 	slots_sent[face$o[2]->node[2]] 	0
scalar barabasi_100nodes_network.node[26].core_layer 	slots_sent[face$o[3]->node[77]] 	32844500
scalar barabasi_100nodes_network.node[26].core_layer 	slots_sent[face$o[4]->node[91]] 	23720600
scalar barabasi_100nodes_network.node[26].content_store 	p_hit[26] 	0.35096837527638
scalar barabasi_100nodes_network.node[26].content_store 	hits[26] 	382545
scalar barabasi_100nodes_network.node[26].content_store 	misses[26] 	707425
scalar barabasi_100nodes_network.node[26].content_store 	decision_yes[26] 	707425
scalar barabasi_100nodes_network.node[26].content_store 	decision_no[26] 	0
scalar barabasi_100nodes_network.node[26].content_store 	decision_ratio[26] 	1
scalar barabasi_100nodes_network.node[27].core_layer 	interests[27] 	761026
scalar barabasi_100nodes_network.node[27].core_layer 	data[27] 	436448
scalar barabasi_100nodes_network.node[27].core_layer 	slots_sent[face$o[1]->client[27]] 	52368100
scalar barabasi_100nodes_network.node[27].core_layer 	slots_sent[face$o[2]->node[4]] 	0
scalar barabasi_100nodes_network.node[27].core_layer 	slots_sent[face$o[3]->node[99]] 	23734500
scalar barabasi_100nodes_network.node[27].content_store 	p_hit[27] 	0.42650054006039
scalar barabasi_100nodes_network.node[27].content_store 	hits[27] 	324578
scalar barabasi_100nodes_network.node[27].content_store 	misses[27] 	436448
scalar barabasi_100nodes_network.node[27].content_store 	decision_yes[27] 	436448
scalar barabasi_100nodes_network.node[27].content_store 	decision_no[27] 	0
scalar barabasi_100nodes_network.node[27].content_store 	decision_ratio[27] 	1
scalar barabasi_100nodes_network.node[28].core_layer 	interests[28] 	524199
scalar barabasi_100nodes_network.node[28].core_layer 	data[28] 	237857
scalar barabasi_100nodes_network.node[28].core_layer 	slots_sent[face$o[1]->client[28]] 	52419900
scalar barabasi_100nodes_network.node[28].core_layer 	slots_sent[face$o[2]->node[0]] 	0
scalar barabasi_100nodes_network.node[28].content_store 	p_hit[28] 	0.54624674980303
scalar barabasi_100nodes_network.node[28].content_store 	hits[28] 	286342
scalar barabasi_100nodes_network.node[28].content_store 	misses[28] 	237857
scalar barabasi_100nodes_network.node[28].content_store 	decision_yes[28] 	237857
scalar barabasi_100nodes_network.node[28].content_store 	decision_no[28] 	0
scalar barabasi_100nodes_network.node[28].content_store 	decision_ratio[28] 	1
scalar barabasi_100nodes_network.node[29].core_layer 	interests[29] 	524844
scalar barabasi_100nodes_network.node[29].core_layer 	repo_load[29] 	113194
scalar barabasi_100nodes_network.node[29].core_layer 	data[29] 	178329
scalar barabasi_100nodes_network.node[29].core_layer 	slots_sent[face$o[1]->client[29]] 	52484400
scalar barabasi_100nodes_network.node[29].core_layer 	slots_sent[face$o[2]->node[2]] 	0
scalar barabasi_100nodes_network.node[29].content_store 	p_hit[29] 	0.44455304814383
scalar barabasi_100nodes_network.node[29].content_store 	hits[29] 	233321
scalar barabasi_100nodes_network.node[29].content_store 	misses[29] 	291523
scalar barabasi_100nodes_network.node[29].content_store 	decision_yes[29] 	178329
scalar barabasi_100nodes_network.node[29].content_store 	decision_no[29] 	113194
scalar barabasi_100nodes_network.node[29].content_store 	decision_ratio[29] 	0.61171502763075
scalar barabasi_100nodes_network.node[30].core_layer 	interests[30] 	702875
scalar barabasi_100nodes_network.node[30].core_layer 	data[30] 	388026
scalar barabasi_100nodes_network.node[30].core_layer 	slots_sent[face$o[1]->client[30]] 	52460700
scalar barabasi_100nodes_network.node[30].core_layer 	slots_sent[face$o[2]->node[4]] 	0
scalar barabasi_100nodes_network.node[30].core_layer 	slots_sent[face$o[3]->node[88]] 	17826800
scalar barabasi_100nodes_network.node[30].content_store 	p_hit[30] 	0.44794451360484
scalar barabasi_100nodes_network.node[30].content_store 	hits[30] 	314849
scalar barabasi_100nodes_network.node[30].content_store 	misses[30] 	388026
scalar barabasi_100nodes_network.node[30].content_store 	decision_yes[30] 	388026
scalar barabasi_100nodes_network.node[30].content_store 	decision_no[30] 	0
scalar barabasi_100nodes_network.node[30].content_store 	decision_ratio[30] 	1
scalar barabasi_100nodes_network.node[31].core_layer 	interests[31] 	991530
scalar barabasi_100nodes_network.node[31].core_layer 	data[31] 	658123
scalar barabasi_100nodes_network.node[31].core_layer 	slots_sent[face$o[1]->client[31]] 	52502600
scalar barabasi_100nodes_network.node[31].core_layer 	slots_sent[face$o[2]->node[7]] 	0
scalar barabasi_100nodes_network.node[31].core_layer 	slots_sent[face$o[3]->node[65]] 	46650400
scalar barabasi_100nodes_network.node[31].content_store 	p_hit[31] 	0.33625508053211
scalar barabasi_100nodes_network.node[31].content_store 	hits[31] 	333407
scalar barabasi_100nodes_network.node[31].content_store 	misses[31] 	658123
scalar barabasi_100nodes_network.node[31].content_store 	decision_yes[31] 	658123
scalar barabasi_100nodes_network.node[31].content_store 	decision_no[31] 	0
scalar barabasi_100nodes_network.node[31].content_store 	decision_ratio[31] 	1
scalar barabasi_100nodes_network.node[32].core_layer 	interests[32] 	999794
scalar barabasi_100nodes_network.node[32].core_layer 	data[32] 	622261
scalar barabasi_100nodes_network.node[32].core_layer 	slots_sent[face$o[1]->client[32]] 	52445200
scalar barabasi_100nodes_network.node[32].core_layer 	slots_sent[face$o[2]->node[2]] 	0
scalar barabasi_100nodes_network.node[32].core_layer 	slots_sent[face$o[3]->node[43]] 	23796600
scalar barabasi_100nodes_network.node[32].core_layer 	slots_sent[face$o[4]->node[64]] 	23737600
scalar barabasi_100nodes_network.node[32].content_store 	p_hit[32] 	0.37761078782229
scalar barabasi_100nodes_network.node[32].content_store 	hits[32] 	377533
scalar barabasi_100nodes_network.node[32].content_store 	misses[32] 	622261
scalar barabasi_100nodes_network.node[32].content_store 	decision_yes[32] 	622261
scalar barabasi_100nodes_network.node[32].content_store 	decision_no[32] 	0
scalar barabasi_100nodes_network.node[32].content_store 	decision_ratio[32] 	1
scalar barabasi_100nodes_network.node[33].core_layer 	interests[33] 	523134
scalar barabasi_100nodes_network.node[33].core_layer 	data[33] 	237438
scalar barabasi_100nodes_network.node[33].core_layer 	slots_sent[face$o[1]->client[33]] 	52313400
scalar barabasi_100nodes_network.node[33].core_layer 	slots_sent[face$o[2]->node[2]] 	0
scalar barabasi_100nodes_network.node[33].content_store 	p_hit[33] 	0.54612393765269
scalar barabasi_100nodes_network.node[33].content_store 	hits[33] 	285696
scalar barabasi_100nodes_network.node[33].content_store 	misses[33] 	237438
scalar barabasi_100nodes_network.node[33].content_store 	decision_yes[33] 	237438
scalar barabasi_100nodes_network.node[33].content_store 	decision_no[33] 	0
scalar barabasi_100nodes_network.node[33].content_store 	decision_ratio[33] 	1
scalar barabasi_100nodes_network.node[34].core_layer 	interests[34] 	524612
scalar barabasi_100nodes_network.node[34].core_layer 	data[34] 	237697
scalar barabasi_100nodes_network.node[34].core_layer 	slots_sent[face$o[1]->client[34]] 	52461200
scalar barabasi_100nodes_network.node[34].core_layer 	slots_sent[face$o[2]->node[2]] 	0
scalar barabasi_100nodes_network.node[34].content_store 	p_hit[34] 	0.5469089536648
scalar barabasi_100nodes_network.node[34].content_store 	hits[34] 	286915
scalar barabasi_100nodes_network.node[34].content_store 	misses[34] 	237697
scalar barabasi_100nodes_network.node[34].content_store 	decision_yes[34] 	237697
scalar barabasi_100nodes_network.node[34].content_store 	decision_no[34] 	0
scalar barabasi_100nodes_network.node[34].content_store 	decision_ratio[34] 	1
scalar barabasi_100nodes_network.node[35].core_layer 	interests[35] 	761538
scalar barabasi_100nodes_network.node[35].core_layer 	data[35] 	437546
scalar barabasi_100nodes_network.node[35].core_layer 	slots_sent[face$o[1]->client[35]] 	52393400
scalar barabasi_100nodes_network.node[35].core_layer 	slots_sent[face$o[2]->node[5]] 	0
scalar barabasi_100nodes_network.node[35].core_layer 	slots_sent[face$o[3]->node[50]] 	23760400
scalar barabasi_100nodes_network.node[35].content_store 	p_hit[35] 	0.42544429824907
scalar barabasi_100nodes_network.node[35].content_store 	hits[35] 	323992
scalar barabasi_100nodes_network.node[35].content_store 	misses[35] 	437546
scalar barabasi_100nodes_network.node[35].content_store 	decision_yes[35] 	437546
scalar barabasi_100nodes_network.node[35].content_store 	decision_no[35] 	0
scalar barabasi_100nodes_network.node[35].content_store 	decision_ratio[35] 	1
scalar barabasi_100nodes_network.node[36].core_layer 	interests[36] 	761812
scalar barabasi_100nodes_network.node[36].core_layer 	data[36] 	438082
scalar barabasi_100nodes_network.node[36].core_layer 	slots_sent[face$o[1]->client[36]] 	52359000
scalar barabasi_100nodes_network.node[36].core_layer 	slots_sent[face$o[2]->node[2]] 	0
scalar barabasi_100nodes_network.node[36].core_layer 	slots_sent[face$o[3]->node[75]] 	23822200
scalar barabasi_100nodes_network.node[36].content_store 	p_hit[36] 	0.42494736234137
scalar barabasi_100nodes_network.node[36].content_store 	hits[36] 	323730
scalar barabasi_100nodes_network.node[36].content_store 	misses[36] 	438082
scalar barabasi_100nodes_network.node[36].content_store 	decision_yes[36] 	438082
scalar barabasi_100nodes_network.node[36].content_store 	decision_no[36] 	0
scalar barabasi_100nodes_network.node[36].content_store 	decision_ratio[36] 	1
scalar barabasi_100nodes_network.node[37].core_layer 	interests[37] 	524808
scalar barabasi_100nodes_network.node[37].core_layer 	data[37] 	237451
scalar barabasi_100nodes_network.node[37].core_layer 	slots_sent[face$o[1]->client[37]] 	52480800
scalar barabasi_100nodes_network.node[37].core_layer 	slots_sent[face$o[2]->node[0]] 	0
scalar barabasi_100nodes_network.node[37].content_store 	p_hit[37] 	0.54754691239463
scalar barabasi_100nodes_network.node[37].content_store 	hits[37] 	287357
scalar barabasi_100nodes_network.node[37].content_store 	misses[37] 	237451
scalar barabasi_100nodes_network.node[37].content_store 	decision_yes[37] 	237451
scalar barabasi_100nodes_network.node[37].content_store 	decision_no[37] 	0
scalar barabasi_100nodes_network.node[37].content_store 	decision_ratio[37] 	1
scalar barabasi_100nodes_network.node[38].core_layer 	interests[38] 	524559
scalar barabasi_100nodes_network.node[38].core_layer 	repo_load[38] 	120936
scalar barabasi_100nodes_network.node[38].core_layer 	data[38] 	178231
scalar barabasi_100nodes_network.node[38].core_layer 	slots_sent[face$o[1]->client[38]] 	52455900
scalar barabasi_100nodes_network.node[38].core_layer 	slots_sent[face$o[2]->node[25]] 	0
scalar barabasi_100nodes_network.node[38].content_store 	p_hit[38] 	0.42967902561962
scalar barabasi_100nodes_network.node[38].content_store 	hits[38] 	225392
scalar barabasi_100nodes_network.node[38].content_store 	misses[38] 	299167
scalar barabasi_100nodes_network.node[38].content_store 	decision_yes[38] 	178231
scalar barabasi_100nodes_network.node[38].content_store 	decision_no[38] 	120936
scalar barabasi_100nodes_network.node[38].content_store 	decision_ratio[38] 	0.59575755347348
scalar barabasi_100nodes_network.node[39].core_layer 	interests[39] 	760793
scalar barabasi_100nodes_network.node[39].core_layer 	data[39] 	436525
scalar barabasi_100nodes_network.node[39].core_layer 	slots_sent[face$o[1]->client[39]] 	52366200
scalar barabasi_100nodes_network.node[39].core_layer 	slots_sent[face$o[2]->node[8]] 	0
scalar barabasi_100nodes_network.node[39].core_layer 	slots_sent[face$o[3]->node[60]] 	23713100
scalar barabasi_100nodes_network.node[39].content_store 	p_hit[39] 	0.42622369028106
scalar barabasi_100nodes_network.node[39].content_store 	hits[39] 	324268
scalar barabasi_100nodes_network.node[39].content_store 	misses[39] 	436525
scalar barabasi_100nodes_network.node[39].content_store 	decision_yes[39] 	436525
scalar barabasi_100nodes_network.node[39].content_store 	decision_no[39] 	0
scalar barabasi_100nodes_network.node[39].content_store 	decision_ratio[39] 	1
scalar barabasi_100nodes_network.node[40].core_layer 	interests[40] 	524106
scalar barabasi_100nodes_network.node[40].core_layer 	data[40] 	237717
scalar barabasi_100nodes_network.node[40].core_layer 	slots_sent[face$o[1]->client[40]] 	52410600
scalar barabasi_100nodes_network.node[40].core_layer 	slots_sent[face$o[2]->node[15]] 	0
scalar barabasi_100nodes_network.node[40].content_store 	p_hit[40] 	0.54643335508466
scalar barabasi_100nodes_network.node[40].content_store 	hits[40] 	286389
scalar barabasi_100nodes_network.node[40].content_store 	misses[40] 	237717
scalar barabasi_100nodes_network.node[40].content_store 	decision_yes[40] 	237717
scalar barabasi_100nodes_network.node[40].content_store 	decision_no[40] 	0
scalar barabasi_100nodes_network.node[40].content_store 	decision_ratio[40] 	1
scalar barabasi_100nodes_network.node[41].core_layer 	interests[41] 	1804705
scalar barabasi_100nodes_network.node[41].core_layer 	data[41] 	1209327
scalar barabasi_100nodes_network.node[41].core_layer 	slots_sent[face$o[1]->client[41]] 	52456700
scalar barabasi_100nodes_network.node[41].core_layer 	slots_sent[face$o[2]->node[2]] 	0
scalar barabasi_100nodes_network.node[41].core_layer 	slots_sent[face$o[3]->node[42]] 	23735800
scalar barabasi_100nodes_network.node[41].core_layer 	slots_sent[face$o[4]->node[48]] 	23862700
scalar barabasi_100nodes_network.node[41].core_layer 	slots_sent[face$o[5]->node[54]] 	32850700
scalar barabasi_100nodes_network.node[41].core_layer 	slots_sent[face$o[6]->node[55]] 	23741900
scalar barabasi_100nodes_network.node[41].core_layer 	slots_sent[face$o[7]->node[69]] 	23822700
scalar barabasi_100nodes_network.node[41].content_store 	p_hit[41] 	0.32990322518085
scalar barabasi_100nodes_network.node[41].content_store 	hits[41] 	595378
scalar barabasi_100nodes_network.node[41].content_store 	misses[41] 	1209327
scalar barabasi_100nodes_network.node[41].content_store 	decision_yes[41] 	1209327
scalar barabasi_100nodes_network.node[41].content_store 	decision_no[41] 	0
scalar barabasi_100nodes_network.node[41].content_store 	decision_ratio[41] 	1
scalar barabasi_100nodes_network.node[42].core_layer 	interests[42] 	524090
scalar barabasi_100nodes_network.node[42].core_layer 	data[42] 	237358
scalar barabasi_100nodes_network.node[42].core_layer 	slots_sent[face$o[1]->client[42]] 	52409000
scalar barabasi_100nodes_network.node[42].core_layer 	slots_sent[face$o[2]->node[41]] 	0
scalar barabasi_100nodes_network.node[42].content_store 	p_hit[42] 	0.54710450495144
scalar barabasi_100nodes_network.node[42].content_store 	hits[42] 	286732
scalar barabasi_100nodes_network.node[42].content_store 	misses[42] 	237358
scalar barabasi_100nodes_network.node[42].content_store 	decision_yes[42] 	237358
scalar barabasi_100nodes_network.node[42].content_store 	decision_no[42] 	0
scalar barabasi_100nodes_network.node[42].content_store 	decision_ratio[42] 	1
scalar barabasi_100nodes_network.node[43].core_layer 	interests[43] 	524898
scalar barabasi_100nodes_network.node[43].core_layer 	data[43] 	237966
scalar barabasi_100nodes_network.node[43].core_layer 	slots_sent[face$o[1]->client[43]] 	52489800
scalar barabasi_100nodes_network.node[43].core_layer 	slots_sent[face$o[2]->node[32]] 	0
scalar barabasi_100nodes_network.node[43].content_store 	p_hit[43] 	0.54664334785044
scalar barabasi_100nodes_network.node[43].content_store 	hits[43] 	286932
scalar barabasi_100nodes_network.node[43].content_store 	misses[43] 	237966
scalar barabasi_100nodes_network.node[43].content_store 	decision_yes[43] 	237966
scalar barabasi_100nodes_network.node[43].content_store 	decision_no[43] 	0
scalar barabasi_100nodes_network.node[43].content_store 	decision_ratio[43] 	1
scalar barabasi_100nodes_network.node[44].core_layer 	interests[44] 	522708
scalar barabasi_100nodes_network.node[44].core_layer 	data[44] 	237631
scalar barabasi_100nodes_network.node[44].core_layer 	slots_sent[face$o[1]->client[44]] 	52270800
scalar barabasi_100nodes_network.node[44].core_layer 	slots_sent[face$o[2]->node[0]] 	0
scalar barabasi_100nodes_network.node[44].content_store 	p_hit[44] 	0.54538480375276
scalar barabasi_100nodes_network.node[44].content_store 	hits[44] 	285077
scalar barabasi_100nodes_network.node[44].content_store 	misses[44] 	237631
scalar barabasi_100nodes_network.node[44].content_store 	decision_yes[44] 	237631
scalar barabasi_100nodes_network.node[44].content_store 	decision_no[44] 	0
scalar barabasi_100nodes_network.node[44].content_store 	decision_ratio[44] 	1
scalar barabasi_100nodes_network.node[45].core_layer 	interests[45] 	523369
scalar barabasi_100nodes_network.node[45].core_layer 	data[45] 	237541
scalar barabasi_100nodes_network.node[45].core_layer 	slots_sent[face$o[1]->client[45]] 	52336900
scalar barabasi_100nodes_network.node[45].core_layer 	slots_sent[face$o[2]->node[2]] 	0
scalar barabasi_100nodes_network.node[45].content_store 	p_hit[45] 	0.54613093247785
scalar barabasi_100nodes_network.node[45].content_store 	hits[45] 	285828
scalar barabasi_100nodes_network.node[45].content_store 	misses[45] 	237541
scalar barabasi_100nodes_network.node[45].content_store 	decision_yes[45] 	237541
scalar barabasi_100nodes_network.node[45].content_store 	decision_no[45] 	0
scalar barabasi_100nodes_network.node[45].content_store 	decision_ratio[45] 	1
scalar barabasi_100nodes_network.node[46].core_layer 	interests[46] 	762671
scalar barabasi_100nodes_network.node[46].core_layer 	data[46] 	437669
scalar barabasi_100nodes_network.node[46].core_layer 	slots_sent[face$o[1]->client[46]] 	52487200
scalar barabasi_100nodes_network.node[46].core_layer 	slots_sent[face$o[2]->node[23]] 	0
scalar barabasi_100nodes_network.node[46].core_layer 	slots_sent[face$o[3]->node[82]] 	23779900
scalar barabasi_100nodes_network.node[46].content_store 	p_hit[46] 	0.4261365647835
scalar barabasi_100nodes_network.node[46].content_store 	hits[46] 	325002
scalar barabasi_100nodes_network.node[46].content_store 	misses[46] 	437669
scalar barabasi_100nodes_network.node[46].content_store 	decision_yes[46] 	437669
scalar barabasi_100nodes_network.node[46].content_store 	decision_no[46] 	0
scalar barabasi_100nodes_network.node[46].content_store 	decision_ratio[46] 	1
scalar barabasi_100nodes_network.node[47].core_layer 	interests[47] 	3173792
scalar barabasi_100nodes_network.node[47].core_layer 	repo_load[47] 	2793600
scalar barabasi_100nodes_network.node[47].core_layer 	data[47] 	177997
scalar barabasi_100nodes_network.node[47].core_layer 	slots_sent[face$o[1]->client[47]] 	52401500
scalar barabasi_100nodes_network.node[47].core_layer 	slots_sent[face$o[2]->node[23]] 	264977700
scalar barabasi_100nodes_network.node[47].content_store 	p_hit[47] 	0.063707703592422
scalar barabasi_100nodes_network.node[47].content_store 	hits[47] 	202195
scalar barabasi_100nodes_network.node[47].content_store 	misses[47] 	2971597
scalar barabasi_100nodes_network.node[47].content_store 	decision_yes[47] 	177997
scalar barabasi_100nodes_network.node[47].content_store 	decision_no[47] 	2793600
scalar barabasi_100nodes_network.node[47].content_store 	decision_ratio[47] 	0.059899441276862
scalar barabasi_100nodes_network.node[48].core_layer 	interests[48] 	525688
scalar barabasi_100nodes_network.node[48].core_layer 	data[48] 	238627
scalar barabasi_100nodes_network.node[48].core_layer 	slots_sent[face$o[1]->client[48]] 	52568800
scalar barabasi_100nodes_network.node[48].core_layer 	slots_sent[face$o[2]->node[41]] 	0
scalar barabasi_100nodes_network.node[48].content_store 	p_hit[48] 	0.54606724901462
scalar barabasi_100nodes_network.node[48].content_store 	hits[48] 	287061
scalar barabasi_100nodes_network.node[48].content_store 	misses[48] 	238627
scalar barabasi_100nodes_network.node[48].content_store 	decision_yes[48] 	238627
scalar barabasi_100nodes_network.node[48].content_store 	decision_no[48] 	0
scalar barabasi_100nodes_network.node[48].content_store 	decision_ratio[48] 	1
scalar barabasi_100nodes_network.node[49].core_layer 	interests[49] 	523910
scalar barabasi_100nodes_network.node[49].core_layer 	data[49] 	238306
scalar barabasi_100nodes_network.node[49].core_layer 	slots_sent[face$o[1]->client[49]] 	52391000
scalar barabasi_100nodes_network.node[49].core_layer 	slots_sent[face$o[2]->node[7]] 	0
scalar barabasi_100nodes_network.node[49].content_store 	p_hit[49] 	0.54513943234525
scalar barabasi_100nodes_network.node[49].content_store 	hits[49] 	285604
scalar barabasi_100nodes_network.node[49].content_store 	misses[49] 	238306
scalar barabasi_100nodes_network.node[49].content_store 	decision_yes[49] 	238306
scalar barabasi_100nodes_network.node[49].content_store 	decision_no[49] 	0
scalar barabasi_100nodes_network.node[49].content_store 	decision_ratio[49] 	1
scalar barabasi_100nodes_network.node[50].core_layer 	interests[50] 	522965
scalar barabasi_100nodes_network.node[50].core_layer 	data[50] 	237604
scalar barabasi_100nodes_network.node[50].core_layer 	slots_sent[face$o[1]->client[50]] 	52296500
scalar barabasi_100nodes_network.node[50].core_layer 	slots_sent[face$o[2]->node[35]] 	0
scalar barabasi_100nodes_network.node[50].content_store 	p_hit[50] 	0.54565984339296
scalar barabasi_100nodes_network.node[50].content_store 	hits[50] 	285361
scalar barabasi_100nodes_network.node[50].content_store 	misses[50] 	237604
scalar barabasi_100nodes_network.node[50].content_store 	decision_yes[50] 	237604
scalar barabasi_100nodes_network.node[50].content_store 	decision_no[50] 	0
[...]
scalar barabasi_100nodes_network.node[77].content_store 	decision_yes[77] 	328445
scalar barabasi_100nodes_network.node[77].content_store 	decision_no[77] 	205331
scalar barabasi_100nodes_network.node[77].content_store 	decision_ratio[77] 	0.61532365636522
scalar barabasi_100nodes_network.node[78].core_layer 	interests[78] 	999944
scalar barabasi_100nodes_network.node[78].core_layer 	repo_load[78] 	265148
scalar barabasi_100nodes_network.node[78].core_layer 	data[78] 	467129
scalar barabasi_100nodes_network.node[78].core_layer 	slots_sent[face$o[1]->client[78]] 	52362500
scalar barabasi_100nodes_network.node[78].core_layer 	slots_sent[face$o[2]->node[13]] 	0
scalar barabasi_100nodes_network.node[78].core_layer 	slots_sent[face$o[3]->node[81]] 	23846200
scalar barabasi_100nodes_network.node[78].core_layer 	slots_sent[face$o[4]->node[87]] 	23785700
scalar barabasi_100nodes_network.node[78].content_store 	p_hit[78] 	0.26768199019145
scalar barabasi_100nodes_network.node[78].content_store 	hits[78] 	267667
scalar barabasi_100nodes_network.node[78].content_store 	misses[78] 	732277
scalar barabasi_100nodes_network.node[78].content_store 	decision_yes[78] 	467129
scalar barabasi_100nodes_network.node[78].content_store 	decision_no[78] 	265148
scalar barabasi_100nodes_network.node[78].content_store 	decision_ratio[78] 	0.63791297555433
scalar barabasi_100nodes_network.node[79].core_layer 	interests[79] 	524938
scalar barabasi_100nodes_network.node[79].core_layer 	data[79] 	237831
scalar barabasi_100nodes_network.node[79].core_layer 	slots_sent[face$o[1]->client[79]] 	52493800
scalar barabasi_100nodes_network.node[79].core_layer 	slots_sent[face$o[2]->node[2]] 	0
scalar barabasi_100nodes_network.node[79].content_store 	p_hit[79] 	0.54693506661739
scalar barabasi_100nodes_network.node[79].content_store 	hits[79] 	287107
scalar barabasi_100nodes_network.node[79].content_store 	misses[79] 	237831
scalar barabasi_100nodes_network.node[79].content_store 	decision_yes[79] 	237831
scalar barabasi_100nodes_network.node[79].content_store 	decision_no[79] 	0
scalar barabasi_100nodes_network.node[79].content_store 	decision_ratio[79] 	1
scalar barabasi_100nodes_network.node[80].core_layer 	interests[80] 	524151
scalar barabasi_100nodes_network.node[80].core_layer 	data[80] 	237521
scalar barabasi_100nodes_network.node[80].core_layer 	slots_sent[face$o[1]->client[80]] 	52415100
scalar barabasi_100nodes_network.node[80].core_layer 	slots_sent[face$o[2]->node[19]] 	0
scalar barabasi_100nodes_network.node[80].content_store 	p_hit[80] 	0.54684623324195
scalar barabasi_100nodes_network.node[80].content_store 	hits[80] 	286630
scalar barabasi_100nodes_network.node[80].content_store 	misses[80] 	237521
scalar barabasi_100nodes_network.node[80].content_store 	decision_yes[80] 	237521
scalar barabasi_100nodes_network.node[80].content_store 	decision_no[80] 	0
scalar barabasi_100nodes_network.node[80].content_store 	decision_ratio[80] 	1
scalar barabasi_100nodes_network.node[81].core_layer 	interests[81] 	524940
scalar barabasi_100nodes_network.node[81].core_layer 	data[81] 	238462
scalar barabasi_100nodes_network.node[81].core_layer 	slots_sent[face$o[1]->client[81]] 	52494000
scalar barabasi_100nodes_network.node[81].core_layer 	slots_sent[face$o[2]->node[78]] 	0
scalar barabasi_100nodes_network.node[81].content_store 	p_hit[81] 	0.54573475063817
scalar barabasi_100nodes_network.node[81].content_store 	hits[81] 	286478
scalar barabasi_100nodes_network.node[81].content_store 	misses[81] 	238462
scalar barabasi_100nodes_network.node[81].content_store 	decision_yes[81] 	238462
scalar barabasi_100nodes_network.node[81].content_store 	decision_no[81] 	0
scalar barabasi_100nodes_network.node[81].content_store 	decision_ratio[81] 	1
scalar barabasi_100nodes_network.node[82].core_layer 	interests[82] 	525265
scalar barabasi_100nodes_network.node[82].core_layer 	data[82] 	237799
scalar barabasi_100nodes_network.node[82].core_layer 	slots_sent[face$o[1]->client[82]] 	52526500
scalar barabasi_100nodes_network.node[82].core_layer 	slots_sent[face$o[2]->node[46]] 	0
scalar barabasi_100nodes_network.node[82].content_store 	p_hit[82] 	0.54727804060807
scalar barabasi_100nodes_network.node[82].content_store 	hits[82] 	287466
scalar barabasi_100nodes_network.node[82].content_store 	misses[82] 	237799
scalar barabasi_100nodes_network.node[82].content_store 	decision_yes[82] 	237799
scalar barabasi_100nodes_network.node[82].content_store 	decision_no[82] 	0
scalar barabasi_100nodes_network.node[82].content_store 	decision_ratio[82] 	1
scalar barabasi_100nodes_network.node[83].core_layer 	interests[83] 	524546
scalar barabasi_100nodes_network.node[83].core_layer 	data[83] 	238448
scalar barabasi_100nodes_network.node[83].core_layer 	slots_sent[face$o[1]->client[83]] 	52454600
scalar barabasi_100nodes_network.node[83].core_layer 	slots_sent[face$o[2]->node[23]] 	0
scalar barabasi_100nodes_network.node[83].content_store 	p_hit[83] 	0.54542023006562
scalar barabasi_100nodes_network.node[83].content_store 	hits[83] 	286098
scalar barabasi_100nodes_network.node[83].content_store 	misses[83] 	238448
scalar barabasi_100nodes_network.node[83].content_store 	decision_yes[83] 	238448
scalar barabasi_100nodes_network.node[83].content_store 	decision_no[83] 	0
scalar barabasi_100nodes_network.node[83].content_store 	decision_ratio[83] 	1
scalar barabasi_100nodes_network.node[84].core_layer 	interests[84] 	762005
scalar barabasi_100nodes_network.node[84].core_layer 	repo_load[84] 	205218
scalar barabasi_100nodes_network.node[84].core_layer 	data[84] 	328245
scalar barabasi_100nodes_network.node[84].core_layer 	slots_sent[face$o[1]->client[84]] 	52380200
scalar barabasi_100nodes_network.node[84].core_layer 	slots_sent[face$o[2]->node[62]] 	0
scalar barabasi_100nodes_network.node[84].core_layer 	slots_sent[face$o[3]->node[92]] 	23820300
scalar barabasi_100nodes_network.node[84].content_store 	p_hit[84] 	0.29992191652286
scalar barabasi_100nodes_network.node[84].content_store 	hits[84] 	228542
scalar barabasi_100nodes_network.node[84].content_store 	misses[84] 	533463
scalar barabasi_100nodes_network.node[84].content_store 	decision_yes[84] 	328245
scalar barabasi_100nodes_network.node[84].content_store 	decision_no[84] 	205218
scalar barabasi_100nodes_network.node[84].content_store 	decision_ratio[84] 	0.61530977781027
scalar barabasi_100nodes_network.node[85].core_layer 	interests[85] 	524362
scalar barabasi_100nodes_network.node[85].core_layer 	data[85] 	238002
scalar barabasi_100nodes_network.node[85].core_layer 	slots_sent[face$o[1]->client[85]] 	52436200
scalar barabasi_100nodes_network.node[85].core_layer 	slots_sent[face$o[2]->node[4]] 	0
scalar barabasi_100nodes_network.node[85].content_store 	p_hit[85] 	0.54611127427235
scalar barabasi_100nodes_network.node[85].content_store 	hits[85] 	286360
scalar barabasi_100nodes_network.node[85].content_store 	misses[85] 	238002
scalar barabasi_100nodes_network.node[85].content_store 	decision_yes[85] 	238002
scalar barabasi_100nodes_network.node[85].content_store 	decision_no[85] 	0
scalar barabasi_100nodes_network.node[85].content_store 	decision_ratio[85] 	1
scalar barabasi_100nodes_network.node[86].core_layer 	interests[86] 	525395
scalar barabasi_100nodes_network.node[86].core_layer 	data[86] 	238606
scalar barabasi_100nodes_network.node[86].core_layer 	slots_sent[face$o[1]->client[86]] 	52539500
scalar barabasi_100nodes_network.node[86].core_layer 	slots_sent[face$o[2]->node[23]] 	0
scalar barabasi_100nodes_network.node[86].content_store 	p_hit[86] 	0.54585407169844
scalar barabasi_100nodes_network.node[86].content_store 	hits[86] 	286789
scalar barabasi_100nodes_network.node[86].content_store 	misses[86] 	238606
scalar barabasi_100nodes_network.node[86].content_store 	decision_yes[86] 	238606
scalar barabasi_100nodes_network.node[86].content_store 	decision_no[86] 	0
scalar barabasi_100nodes_network.node[86].content_store 	decision_ratio[86] 	1
scalar barabasi_100nodes_network.node[87].core_layer 	interests[87] 	524392
scalar barabasi_100nodes_network.node[87].core_layer 	data[87] 	237857
scalar barabasi_100nodes_network.node[87].core_layer 	slots_sent[face$o[1]->client[87]] 	52439200
scalar barabasi_100nodes_network.node[87].core_layer 	slots_sent[face$o[2]->node[78]] 	0
scalar barabasi_100nodes_network.node[87].content_store 	p_hit[87] 	0.54641375154465
scalar barabasi_100nodes_network.node[87].content_store 	hits[87] 	286535
scalar barabasi_100nodes_network.node[87].content_store 	misses[87] 	237857
scalar barabasi_100nodes_network.node[87].content_store 	decision_yes[87] 	237857
scalar barabasi_100nodes_network.node[87].content_store 	decision_no[87] 	0
scalar barabasi_100nodes_network.node[87].content_store 	decision_ratio[87] 	1
scalar barabasi_100nodes_network.node[88].core_layer 	interests[88] 	522449
scalar barabasi_100nodes_network.node[88].core_layer 	repo_load[88] 	143994
scalar barabasi_100nodes_network.node[88].core_layer 	data[88] 	178268
scalar barabasi_100nodes_network.node[88].core_layer 	slots_sent[face$o[1]->client[88]] 	52244900
scalar barabasi_100nodes_network.node[88].core_layer 	slots_sent[face$o[2]->node[30]] 	0
scalar barabasi_100nodes_network.node[88].content_store 	p_hit[88] 	0.38317041471991
scalar barabasi_100nodes_network.node[88].content_store 	hits[88] 	200187
scalar barabasi_100nodes_network.node[88].content_store 	misses[88] 	322262
scalar barabasi_100nodes_network.node[88].content_store 	decision_yes[88] 	178268
scalar barabasi_100nodes_network.node[88].content_store 	decision_no[88] 	143994
scalar barabasi_100nodes_network.node[88].content_store 	decision_ratio[88] 	0.55317722846628
scalar barabasi_100nodes_network.node[89].core_layer 	interests[89] 	523893
scalar barabasi_100nodes_network.node[89].core_layer 	data[89] 	237244
scalar barabasi_100nodes_network.node[89].core_layer 	slots_sent[face$o[1]->client[89]] 	52389300
scalar barabasi_100nodes_network.node[89].core_layer 	slots_sent[face$o[2]->node[19]] 	0
scalar barabasi_100nodes_network.node[89].content_store 	p_hit[89] 	0.54715180389889
scalar barabasi_100nodes_network.node[89].content_store 	hits[89] 	286649
scalar barabasi_100nodes_network.node[89].content_store 	misses[89] 	237244
scalar barabasi_100nodes_network.node[89].content_store 	decision_yes[89] 	237244
scalar barabasi_100nodes_network.node[89].content_store 	decision_no[89] 	0
scalar barabasi_100nodes_network.node[89].content_store 	decision_ratio[89] 	1
scalar barabasi_100nodes_network.node[90].core_layer 	interests[90] 	523725
scalar barabasi_100nodes_network.node[90].core_layer 	data[90] 	237407
scalar barabasi_100nodes_network.node[90].core_layer 	slots_sent[face$o[1]->client[90]] 	52372500
scalar barabasi_100nodes_network.node[90].core_layer 	slots_sent[face$o[2]->node[7]] 	0
scalar barabasi_100nodes_network.node[90].content_store 	p_hit[90] 	0.54669530765192
scalar barabasi_100nodes_network.node[90].content_store 	hits[90] 	286318
scalar barabasi_100nodes_network.node[90].content_store 	misses[90] 	237407
scalar barabasi_100nodes_network.node[90].content_store 	decision_yes[90] 	237407
scalar barabasi_100nodes_network.node[90].content_store 	decision_no[90] 	0
scalar barabasi_100nodes_network.node[90].content_store 	decision_ratio[90] 	1
scalar barabasi_100nodes_network.node[91].core_layer 	interests[91] 	524076
scalar barabasi_100nodes_network.node[91].core_layer 	data[91] 	237206
scalar barabasi_100nodes_network.node[91].core_layer 	slots_sent[face$o[1]->client[91]] 	52407600
scalar barabasi_100nodes_network.node[91].core_layer 	slots_sent[face$o[2]->node[26]] 	0
scalar barabasi_100nodes_network.node[91].content_store 	p_hit[91] 	0.54738244071471
scalar barabasi_100nodes_network.node[91].content_store 	hits[91] 	286870
scalar barabasi_100nodes_network.node[91].content_store 	misses[91] 	237206
scalar barabasi_100nodes_network.node[91].content_store 	decision_yes[91] 	237206
scalar barabasi_100nodes_network.node[91].content_store 	decision_no[91] 	0
scalar barabasi_100nodes_network.node[91].content_store 	decision_ratio[91] 	1
scalar barabasi_100nodes_network.node[92].core_layer 	interests[92] 	525230
scalar barabasi_100nodes_network.node[92].core_layer 	data[92] 	238203
scalar barabasi_100nodes_network.node[92].core_layer 	slots_sent[face$o[1]->client[92]] 	52523000
scalar barabasi_100nodes_network.node[92].core_layer 	slots_sent[face$o[2]->node[84]] 	0
scalar barabasi_100nodes_network.node[92].content_store 	p_hit[92] 	0.54647868552824
scalar barabasi_100nodes_network.node[92].content_store 	hits[92] 	287027
scalar barabasi_100nodes_network.node[92].content_store 	misses[92] 	238203
scalar barabasi_100nodes_network.node[92].content_store 	decision_yes[92] 	238203
scalar barabasi_100nodes_network.node[92].content_store 	decision_no[92] 	0
scalar barabasi_100nodes_network.node[92].content_store 	decision_ratio[92] 	1
scalar barabasi_100nodes_network.node[93].core_layer 	interests[93] 	524619
scalar barabasi_100nodes_network.node[93].core_layer 	data[93] 	237107
scalar barabasi_100nodes_network.node[93].core_layer 	slots_sent[face$o[1]->client[93]] 	52461900
scalar barabasi_100nodes_network.node[93].core_layer 	slots_sent[face$o[2]->node[0]] 	0
scalar barabasi_100nodes_network.node[93].content_store 	p_hit[93] 	0.54803962494687
scalar barabasi_100nodes_network.node[93].content_store 	hits[93] 	287512
scalar barabasi_100nodes_network.node[93].content_store 	misses[93] 	237107
scalar barabasi_100nodes_network.node[93].content_store 	decision_yes[93] 	237107
scalar barabasi_100nodes_network.node[93].content_store 	decision_no[93] 	0
scalar barabasi_100nodes_network.node[93].content_store 	decision_ratio[93] 	1
scalar barabasi_100nodes_network.node[94].core_layer 	interests[94] 	524610
scalar barabasi_100nodes_network.node[94].core_layer 	data[94] 	237950
scalar barabasi_100nodes_network.node[94].core_layer 	slots_sent[face$o[1]->client[94]] 	52461000
scalar barabasi_100nodes_network.node[94].core_layer 	slots_sent[face$o[2]->node[58]] 	0
scalar barabasi_100nodes_network.node[94].content_store 	p_hit[94] 	0.54642496330608
scalar barabasi_100nodes_network.node[94].content_store 	hits[94] 	286660
scalar barabasi_100nodes_network.node[94].content_store 	misses[94] 	237950
scalar barabasi_100nodes_network.node[94].content_store 	decision_yes[94] 	237950
scalar barabasi_100nodes_network.node[94].content_store 	decision_no[94] 	0
scalar barabasi_100nodes_network.node[94].content_store 	decision_ratio[94] 	1
scalar barabasi_100nodes_network.node[95].core_layer 	interests[95] 	524392
scalar barabasi_100nodes_network.node[95].core_layer 	data[95] 	238305
scalar barabasi_100nodes_network.node[95].core_layer 	slots_sent[face$o[1]->client[95]] 	52439200
scalar barabasi_100nodes_network.node[95].core_layer 	slots_sent[face$o[2]->node[65]] 	0
scalar barabasi_100nodes_network.node[95].content_store 	p_hit[95] 	0.54555942882424
scalar barabasi_100nodes_network.node[95].content_store 	hits[95] 	286087
scalar barabasi_100nodes_network.node[95].content_store 	misses[95] 	238305
scalar barabasi_100nodes_network.node[95].content_store 	decision_yes[95] 	238305
scalar barabasi_100nodes_network.node[95].content_store 	decision_no[95] 	0
scalar barabasi_100nodes_network.node[95].content_store 	decision_ratio[95] 	1
scalar barabasi_100nodes_network.node[96].core_layer 	interests[96] 	523686
scalar barabasi_100nodes_network.node[96].core_layer 	data[96] 	237828
scalar barabasi_100nodes_network.node[96].core_layer 	slots_sent[face$o[1]->client[96]] 	52368600
scalar barabasi_100nodes_network.node[96].core_layer 	slots_sent[face$o[2]->node[77]] 	0
scalar barabasi_100nodes_network.node[96].content_store 	p_hit[96] 	0.54585763224528
scalar barabasi_100nodes_network.node[96].content_store 	hits[96] 	285858
scalar barabasi_100nodes_network.node[96].content_store 	misses[96] 	237828
scalar barabasi_100nodes_network.node[96].content_store 	decision_yes[96] 	237828
scalar barabasi_100nodes_network.node[96].content_store 	decision_no[96] 	0
scalar barabasi_100nodes_network.node[96].content_store 	decision_ratio[96] 	1
scalar barabasi_100nodes_network.node[97].core_layer 	interests[97] 	524416
scalar barabasi_100nodes_network.node[97].core_layer 	data[97] 	238435
scalar barabasi_100nodes_network.node[97].core_layer 	slots_sent[face$o[1]->client[97]] 	52441500
scalar barabasi_100nodes_network.node[97].core_layer 	slots_sent[face$o[2]->node[54]] 	0
scalar barabasi_100nodes_network.node[97].content_store 	p_hit[97] 	0.545330424701
scalar barabasi_100nodes_network.node[97].content_store 	hits[97] 	285980
scalar barabasi_100nodes_network.node[97].content_store 	misses[97] 	238436
scalar barabasi_100nodes_network.node[97].content_store 	decision_yes[97] 	238435
scalar barabasi_100nodes_network.node[97].content_store 	decision_no[97] 	0
scalar barabasi_100nodes_network.node[97].content_store 	decision_ratio[97] 	1
scalar barabasi_100nodes_network.node[98].core_layer 	interests[98] 	524126
scalar barabasi_100nodes_network.node[98].core_layer 	data[98] 	237848
scalar barabasi_100nodes_network.node[98].core_layer 	slots_sent[face$o[1]->client[98]] 	52412600
scalar barabasi_100nodes_network.node[98].core_layer 	slots_sent[face$o[2]->node[65]] 	0
scalar barabasi_100nodes_network.node[98].content_store 	p_hit[98] 	0.54620072272698
scalar barabasi_100nodes_network.node[98].content_store 	hits[98] 	286278
scalar barabasi_100nodes_network.node[98].content_store 	misses[98] 	237848
scalar barabasi_100nodes_network.node[98].content_store 	decision_yes[98] 	237848
scalar barabasi_100nodes_network.node[98].content_store 	decision_no[98] 	0
scalar barabasi_100nodes_network.node[98].content_store 	decision_ratio[98] 	1
scalar barabasi_100nodes_network.node[99].core_layer 	interests[99] 	522826
scalar barabasi_100nodes_network.node[99].core_layer 	data[99] 	237345
scalar barabasi_100nodes_network.node[99].core_layer 	slots_sent[face$o[1]->client[99]] 	52282600
scalar barabasi_100nodes_network.node[99].core_layer 	slots_sent[face$o[2]->node[27]] 	0
scalar barabasi_100nodes_network.node[99].content_store 	p_hit[99] 	0.54603443593088
scalar barabasi_100nodes_network.node[99].content_store 	hits[99] 	285481
scalar barabasi_100nodes_network.node[99].content_store 	misses[99] 	237345
scalar barabasi_100nodes_network.node[99].content_store 	decision_yes[99] 	237345
scalar barabasi_100nodes_network.node[99].content_store 	decision_no[99] 	0
scalar barabasi_100nodes_network.node[99].content_store 	decision_ratio[99] 	1
scalar barabasi_100nodes_network.client[0] 	hdistance[0].real 	0.94022806957307
scalar barabasi_100nodes_network.client[0] 	downloads[0].real 	524226
scalar barabasi_100nodes_network.client[0] 	avg_time[0].real 	0
scalar barabasi_100nodes_network.client[1] 	hdistance[1].real 	1.389826957325
scalar barabasi_100nodes_network.client[1] 	downloads[1].real 	525015
scalar barabasi_100nodes_network.client[1] 	avg_time[1].real 	0
scalar barabasi_100nodes_network.client[2] 	hdistance[2].real 	0.65105781175347
scalar barabasi_100nodes_network.client[2] 	downloads[2].real 	523250
scalar barabasi_100nodes_network.client[2] 	avg_time[2].real 	0
scalar barabasi_100nodes_network.client[3] 	hdistance[3].real 	1.08703845699
scalar barabasi_100nodes_network.client[3] 	downloads[3].real 	524274
scalar barabasi_100nodes_network.client[3] 	avg_time[3].real 	0
scalar barabasi_100nodes_network.client[4] 	hdistance[4].real 	0.97500456954852
scalar barabasi_100nodes_network.client[4] 	downloads[4].real 	525216
scalar barabasi_100nodes_network.client[4] 	avg_time[4].real 	0
scalar barabasi_100nodes_network.client[5] 	hdistance[5].real 	1.3200315463423
scalar barabasi_100nodes_network.client[5] 	downloads[5].real 	524942
scalar barabasi_100nodes_network.client[5] 	avg_time[5].real 	0
scalar barabasi_100nodes_network.client[6] 	hdistance[6].real 	1.104758360055
scalar barabasi_100nodes_network.client[6] 	download