version 2
run General-2110-20140422-20:23:48-16838
attr D costprob0.1
attr F nrr
attr R lru
attr a 1.2
attr configname General
attr csize 10
attr ctlg 10^3
attr datetime 20140422-20:23:48
attr experiment General
attr inifile omnetpp.ini
attr iterationvars "$net=simple_scenario, $rep=18, $priceratiovalue=6, $a=1.2, $ctlg=10^3, $F=nrr, $ttl=1000, $D=costprob0.1, $R=lru, $csize=10"
attr iterationvars2 "$net=simple_scenario, $rep=18, $priceratiovalue=6, $a=1.2, $ctlg=10^3, $F=nrr, $ttl=1000, $D=costprob0.1, $R=lru, $csize=10, $repetition=0"
attr measurement "$net=simple_scenario, $rep=18, $priceratiovalue=6, $a=1.2, $ctlg=10^3, $F=nrr, $ttl=1000, $D=costprob0.1, $R=lru, $csize=10"
attr net simple_scenario
attr network networks.${net=simple_scenario}_network
attr priceratiovalue 6
attr processid 16838
attr rep 18
attr repetition 0
attr replication #0
attr resultdir results
attr runnumber 2110
attr seedset 18
attr ttl 1000

scalar . 	a 	1.2
scalar . 	csize 	10
scalar . 	priceratiovalue 	6
scalar . 	rep 	18
scalar . 	ttl 	1000
scalar simple_scenario_network.content_distribution 	repo-0 	3
scalar simple_scenario_network.content_distribution 	repo-1 	4
scalar simple_scenario_network.content_distribution 	client-0 	0
scalar simple_scenario_network.content_distribution 	repo-0_card 	499
scalar simple_scenario_network.content_distribution 	repo-1_card 	501
scalar simple_scenario_network.statistics 	p_hit 	0.31677129601126
scalar simple_scenario_network.statistics 	interests 	72764.8
scalar simple_scenario_network.statistics 	data 	36912.4
scalar simple_scenario_network.statistics 	hdistance 	1.3866575180462
scalar simple_scenario_network.statistics 	avg_time 	0.00198563775
scalar simple_scenario_network.statistics 	downloads 	179262
scalar simple_scenario_network.statistics 	total_cost 	31763
scalar simple_scenario_network.node[0].core_layer 	interests[0] 	179262
scalar simple_scenario_network.node[0].core_layer 	data[0] 	120549
scalar simple_scenario_network.node[0].core_layer 	repo_int[0] 	64013
scalar simple_scenario_network.node[0].content_store 	p_hit[0] 	0.32752619071527
scalar simple_scenario_network.node[0].content_store 	hits[0] 	58713
scalar simple_scenario_network.node[0].content_store 	misses[0] 	120549
scalar simple_scenario_network.node[1].core_layer 	interests[1] 	62553
scalar simple_scenario_network.node[1].core_layer 	data[1] 	32346
scalar simple_scenario_network.node[1].content_store 	p_hit[1] 	0.48290249868112
scalar simple_scenario_network.node[1].content_store 	hits[1] 	30207
scalar simple_scenario_network.node[1].content_store 	misses[1] 	32346
scalar simple_scenario_network.node[2].core_layer 	interests[2] 	57996
scalar simple_scenario_network.node[2].core_layer 	data[2] 	31667
scalar simple_scenario_network.node[2].content_store 	p_hit[2] 	0.45397958479895
scalar simple_scenario_network.node[2].content_store 	hits[2] 	26329
scalar simple_scenario_network.node[2].content_store 	misses[2] 	31667
scalar simple_scenario_network.node[3].core_layer 	interests[3] 	32346
scalar simple_scenario_network.node[3].core_layer 	repo_load[3] 	32346
scalar simple_scenario_network.node[3].core_layer 	data[3] 	0
scalar simple_scenario_network.node[3].content_store 	p_hit[3] 	0
scalar simple_scenario_network.node[3].content_store 	hits[3] 	0
scalar simple_scenario_network.node[3].content_store 	misses[3] 	32346
scalar simple_scenario_network.node[4].core_layer 	interests[4] 	31667
scalar simple_scenario_network.node[4].core_layer 	repo_load[4] 	31667
scalar simple_scenario_network.node[4].core_layer 	data[4] 	0
scalar simple_scenario_network.node[4].content_store 	p_hit[4] 	0
scalar simple_scenario_network.node[4].content_store 	hits[4] 	0
scalar simple_scenario_network.node[4].content_store 	misses[4] 	31667
scalar simple_scenario_network.client[0] 	hdistance[0] 	1.3866575180462
scalar simple_scenario_network.client[0] 	downloads[0] 	179262
scalar simple_scenario_network.client[0] 	avg_time[0] 	0.00198563775
