version 2
run General-3-20140103-22:17:31-32212
attr D lce
attr F spr
attr R lru
attr a 0.8
attr configname General
attr csize 10^5
attr datetime 20140103-22:17:31
attr experiment General
attr inifile omnetpp.ini
attr iterationvars "$net=simple_scenario_cache_in_the_core, $rep=0, $a=0.8, $F=spr, $ttl=1000, $D=lce, $R=lru, $csize=10^5"
attr iterationvars2 "$net=simple_scenario_cache_in_the_core, $rep=0, $a=0.8, $F=spr, $ttl=1000, $D=lce, $R=lru, $csize=10^5, $repetition=0"
attr measurement "$net=simple_scenario_cache_in_the_core, $rep=0, $a=0.8, $F=spr, $ttl=1000, $D=lce, $R=lru, $csize=10^5"
attr net simple_scenario_cache_in_the_core
attr network networks.${net=simple_scenario_cache_in_the_core,simple_scenario_cache_at_border}_network
attr processid 32212
attr rep 0
attr repetition 0
attr replication #0
attr resultdir results
attr runnumber 3
attr seedset 0
attr ttl 1000

scalar . 	a 	0.8
scalar . 	rep 	0
scalar . 	ttl 	1000
scalar simple_scenario_cache_in_the_core_network.content_distribution 	repo-0 	3
scalar simple_scenario_cache_in_the_core_network.content_distribution 	repo-1 	4
scalar simple_scenario_cache_in_the_core_network.content_distribution 	client-0 	0
scalar simple_scenario_cache_in_the_core_network.node[0].face$o[1].channel 	effectiveCost:sum 	0
scalar simple_scenario_cache_in_the_core_network.node[0].face$o[2].channel 	effectiveCost:sum 	0
scalar simple_scenario_cache_in_the_core_network.node[1].face$o[1].channel 	effectiveCost:sum 	0
scalar simple_scenario_cache_in_the_core_network.node[1].face$o[2].channel 	effectiveCost:sum 	0
scalar simple_scenario_cache_in_the_core_network.node[2].face$o[1].channel 	effectiveCost:sum 	0
scalar simple_scenario_cache_in_the_core_network.node[2].face$o[2].channel 	effectiveCost:sum 	0
scalar simple_scenario_cache_in_the_core_network.node[3].face$o[1].channel 	effectiveCost:sum 	0
scalar simple_scenario_cache_in_the_core_network.node[4].face$o[1].channel 	effectiveCost:sum 	0
scalar simple_scenario_cache_in_the_core_network.statistics 	p_hit 	0.2401697717214
scalar simple_scenario_cache_in_the_core_network.statistics 	interests 	72709.4
scalar simple_scenario_cache_in_the_core_network.statistics 	data 	36831.2
scalar simple_scenario_cache_in_the_core_network.statistics 	hdistance 	1.5398431359433
scalar simple_scenario_cache_in_the_core_network.statistics 	avg_time 	0.0019998668
scalar simple_scenario_cache_in_the_core_network.statistics 	downloads 	179391
scalar simple_scenario_cache_in_the_core_network.node[0].core_layer 	interests[0] 	179391
scalar simple_scenario_cache_in_the_core_network.node[0].core_layer 	data[0] 	92078
scalar simple_scenario_cache_in_the_core_network.node[0].core_layer 	repo_int[0] 	92078
scalar simple_scenario_cache_in_the_core_network.node[0].content_store 	p_hit[0] 	0.48671895468558
scalar simple_scenario_cache_in_the_core_network.node[0].content_store 	hits[0] 	87313
scalar simple_scenario_cache_in_the_core_network.node[0].content_store 	misses[0] 	92078
scalar simple_scenario_cache_in_the_core_network.node[1].core_layer 	interests[1] 	46295
scalar simple_scenario_cache_in_the_core_network.node[1].core_layer 	data[1] 	46295
scalar simple_scenario_cache_in_the_core_network.node[1].content_store 	p_hit[1] 	0
scalar simple_scenario_cache_in_the_core_network.node[1].content_store 	hits[1] 	0
scalar simple_scenario_cache_in_the_core_network.node[1].content_store 	misses[1] 	46295
scalar simple_scenario_cache_in_the_core_network.node[2].core_layer 	interests[2] 	45783
scalar simple_scenario_cache_in_the_core_network.node[2].core_layer 	data[2] 	45783
scalar simple_scenario_cache_in_the_core_network.node[2].content_store 	p_hit[2] 	0
scalar simple_scenario_cache_in_the_core_network.node[2].content_store 	hits[2] 	0
scalar simple_scenario_cache_in_the_core_network.node[2].content_store 	misses[2] 	45783
scalar simple_scenario_cache_in_the_core_network.node[3].core_layer 	interests[3] 	46295
scalar simple_scenario_cache_in_the_core_network.node[3].core_layer 	repo_load[3] 	46295
scalar simple_scenario_cache_in_the_core_network.node[3].core_layer 	data[3] 	0
scalar simple_scenario_cache_in_the_core_network.node[3].content_store 	p_hit[3] 	0
scalar simple_scenario_cache_in_the_core_network.node[3].content_store 	hits[3] 	0
scalar simple_scenario_cache_in_the_core_network.node[3].content_store 	misses[3] 	46295
scalar simple_scenario_cache_in_the_core_network.node[4].core_layer 	interests[4] 	45783
scalar simple_scenario_cache_in_the_core_network.node[4].core_layer 	repo_load[4] 	45783
scalar simple_scenario_cache_in_the_core_network.node[4].core_layer 	data[4] 	0
scalar simple_scenario_cache_in_the_core_network.node[4].content_store 	p_hit[4] 	0
scalar simple_scenario_cache_in_the_core_network.node[4].content_store 	hits[4] 	0
scalar simple_scenario_cache_in_the_core_network.node[4].content_store 	misses[4] 	45783
scalar simple_scenario_cache_in_the_core_network.client[0] 	hdistance[0] 	1.5398431359433
scalar simple_scenario_cache_in_the_core_network.client[0] 	downloads[0] 	179391
scalar simple_scenario_cache_in_the_core_network.client[0] 	avg_time[0] 	0.0019998668
