version 2
run General-6799-20140423-21:23:45-1866
attr D fix0.01
attr F nrr
attr R lru
attr a 1.2
attr configname General
attr csize 2
attr ctlg 10^3
attr datetime 20140423-21:23:45
attr experiment General
attr inifile omnetpp.ini
attr iterationvars "$net=simple_scenario, $rep=19, $priceratiovalue=9, $a=1.2, $ctlg=10^3, $F=nrr, $ttl=1000, $D=fix0.01, $R=lru, $csize=2"
attr iterationvars2 "$net=simple_scenario, $rep=19, $priceratiovalue=9, $a=1.2, $ctlg=10^3, $F=nrr, $ttl=1000, $D=fix0.01, $R=lru, $csize=2, $repetition=0"
attr measurement "$net=simple_scenario, $rep=19, $priceratiovalue=9, $a=1.2, $ctlg=10^3, $F=nrr, $ttl=1000, $D=fix0.01, $R=lru, $csize=2"
attr net simple_scenario
attr network networks.${net=simple_scenario}_network
attr priceratiovalue 9
attr processid 1866
attr rep 19
attr repetition 0
attr replication #0
attr resultdir results
attr runnumber 6799
attr seedset 19
attr ttl 1000

scalar . 	a 	1.2
scalar . 	csize 	2
scalar . 	priceratiovalue 	9
scalar . 	rep 	19
scalar . 	ttl 	1000
scalar simple_scenario_network.content_distribution 	repo-0 	3
scalar simple_scenario_network.content_distribution 	repo-1 	4
scalar simple_scenario_network.content_distribution 	client-0 	0
scalar simple_scenario_network.content_distribution 	repo-0_card 	476
scalar simple_scenario_network.content_distribution 	repo-1_card 	524
scalar simple_scenario_network.statistics 	p_hit 	0.14425067185088
scalar simple_scenario_network.statistics 	interests 	87445
scalar simple_scenario_network.statistics 	data 	51598.4
scalar simple_scenario_network.statistics 	hdistance 	2.0875341036528
scalar simple_scenario_network.statistics 	avg_time 	0.001985114729
scalar simple_scenario_network.statistics 	downloads 	179233
scalar simple_scenario_network.statistics 	total_cost 	56416
scalar simple_scenario_network.node[0].core_layer 	interests[0] 	179233
scalar simple_scenario_network.node[0].core_layer 	data[0] 	141829
scalar simple_scenario_network.node[0].core_layer 	repo_int[0] 	116163
scalar simple_scenario_network.node[0].content_store 	p_hit[0] 	0.20868924807374
scalar simple_scenario_network.node[0].content_store 	hits[0] 	37404
scalar simple_scenario_network.node[0].content_store 	misses[0] 	141829
scalar simple_scenario_network.node[1].core_layer 	interests[1] 	71436
scalar simple_scenario_network.node[1].core_layer 	data[1] 	60162
scalar simple_scenario_network.node[1].content_store 	p_hit[1] 	0.15781958676298
scalar simple_scenario_network.node[1].content_store 	hits[1] 	11274
scalar simple_scenario_network.node[1].content_store 	misses[1] 	60162
scalar simple_scenario_network.node[2].core_layer 	interests[2] 	70393
scalar simple_scenario_network.node[2].core_layer 	data[2] 	56001
scalar simple_scenario_network.node[2].content_store 	p_hit[2] 	0.20445214723055
scalar simple_scenario_network.node[2].content_store 	hits[2] 	14392
scalar simple_scenario_network.node[2].content_store 	misses[2] 	56001
scalar simple_scenario_network.node[3].core_layer 	interests[3] 	60162
scalar simple_scenario_network.node[3].core_layer 	repo_load[3] 	60162
scalar simple_scenario_network.node[3].core_layer 	data[3] 	0
scalar simple_scenario_network.node[3].content_store 	p_hit[3] 	0
scalar simple_scenario_network.node[3].content_store 	hits[3] 	0
scalar simple_scenario_network.node[3].content_store 	misses[3] 	60162
scalar simple_scenario_network.node[4].core_layer 	interests[4] 	56001
scalar simple_scenario_network.node[4].core_layer 	repo_load[4] 	56001
scalar simple_scenario_network.node[4].core_layer 	data[4] 	0
scalar simple_scenario_network.node[4].content_store 	p_hit[4] 	0
scalar simple_scenario_network.node[4].content_store 	hits[4] 	0
scalar simple_scenario_network.node[4].content_store 	misses[4] 	56001
scalar simple_scenario_network.client[0] 	hdistance[0] 	2.0875341036528
scalar simple_scenario_network.client[0] 	downloads[0] 	179233
scalar simple_scenario_network.client[0] 	avg_time[0] 	0.001985114729
