version 2
run General-1706-20140502-04:24:47-10635
attr D costprob0.5
attr F nrr
attr R lru
attr a 1
attr configname General
attr csize 1e3
attr ctlg 1e5
attr datetime 20140502-04:24:47
attr experiment General
attr inifile omnetpp.ini
attr iterationvars "$net=three_caches_scenario_3_links, $rep=3, $priceratiovalue=10, $weights=0_0.5_0.5, $a=1, $ctlg=1e5, $F=nrr, $ttl=1000, $D=costprob0.5, $xi=1, $R=lru, $csize=1e3"
attr iterationvars2 "$net=three_caches_scenario_3_links, $rep=3, $priceratiovalue=10, $weights=0_0.5_0.5, $a=1, $ctlg=1e5, $F=nrr, $ttl=1000, $D=costprob0.5, $xi=1, $R=lru, $csize=1e3, $repetition=0"
attr measurement "$net=three_caches_scenario_3_links, $rep=3, $priceratiovalue=10, $weights=0_0.5_0.5, $a=1, $ctlg=1e5, $F=nrr, $ttl=1000, $D=costprob0.5, $xi=1, $R=lru, $csize=1e3"
attr net three_caches_scenario_3_links
attr network networks.${net=three_caches_scenario_3_links}_network
attr priceratiovalue 10
attr processid 10635
attr rep 3
attr repetition 0
attr replication #0
attr resultdir results
attr runnumber 1706
attr seedset 3
attr ttl 1000
attr weights 0_0.5_0.5
attr xi 1

scalar . 	a 	1
scalar . 	csize 	1e3
scalar . 	ctlg 	1e5
scalar . 	priceratiovalue 	10
scalar . 	rep 	3
scalar . 	ttl 	1000
scalar . 	xi 	1
scalar three_caches_scenario_3_links_network.content_distribution 	repo-0 	4
scalar three_caches_scenario_3_links_network.content_distribution 	repo-1 	5
scalar three_caches_scenario_3_links_network.content_distribution 	repo-2 	6
scalar three_caches_scenario_3_links_network.content_distribution 	client-0 	0
scalar three_caches_scenario_3_links_network.content_distribution 	repo-0_card 	0
scalar three_caches_scenario_3_links_network.content_distribution 	repo-1_card 	49794
scalar three_caches_scenario_3_links_network.content_distribution 	repo-2_card 	50206
scalar three_caches_scenario_3_links_network.statistics 	p_hit 	0.22877275544929
scalar three_caches_scenario_3_links_network.statistics 	interests 	56462.142857143
scalar three_caches_scenario_3_links_network.statistics 	data 	30783.857142857
scalar three_caches_scenario_3_links_network.statistics 	hdistance 	1.6957963370942
scalar three_caches_scenario_3_links_network.statistics 	avg_time 	0
scalar three_caches_scenario_3_links_network.statistics 	downloads 	179748
scalar three_caches_scenario_3_links_network.statistics 	total_cost 	508828
scalar three_caches_scenario_3_links_network.statistics 	total_replicas 	100000
scalar three_caches_scenario_3_links_network.statistics 	interests_sent 	179748
scalar three_caches_scenario_3_links_network.node[0].core_layer 	interests[0] 	179748
scalar three_caches_scenario_3_links_network.node[0].core_layer 	data[0] 	126158
scalar three_caches_scenario_3_links_network.node[0].core_layer 	repo_int[0] 	89329
scalar three_caches_scenario_3_links_network.node[0].content_store 	p_hit[0] 	0.29813961768698
scalar three_caches_scenario_3_links_network.node[0].content_store 	hits[0] 	53590
scalar three_caches_scenario_3_links_network.node[0].content_store 	misses[0] 	126158
scalar three_caches_scenario_3_links_network.node[0].content_store 	decision_yes[0] 	46376
scalar three_caches_scenario_3_links_network.node[0].content_store 	decision_no[0] 	79782
scalar three_caches_scenario_3_links_network.node[1].core_layer 	interests[1] 	0
scalar three_caches_scenario_3_links_network.node[1].core_layer 	data[1] 	0
scalar three_caches_scenario_3_links_network.node[1].content_store 	p_hit[1] 	-nan
scalar three_caches_scenario_3_links_network.node[1].content_store 	hits[1] 	0
scalar three_caches_scenario_3_links_network.node[1].content_store 	misses[1] 	0
scalar three_caches_scenario_3_links_network.node[1].content_store 	decision_yes[1] 	0
scalar three_caches_scenario_3_links_network.node[1].content_store 	decision_no[1] 	0
scalar three_caches_scenario_3_links_network.node[2].core_layer 	interests[2] 	76491
scalar three_caches_scenario_3_links_network.node[2].core_layer 	data[2] 	42718
scalar three_caches_scenario_3_links_network.node[2].content_store 	p_hit[2] 	0.44152906877933
scalar three_caches_scenario_3_links_network.node[2].content_store 	hits[2] 	33773
scalar three_caches_scenario_3_links_network.node[2].content_store 	misses[2] 	42718
scalar three_caches_scenario_3_links_network.node[2].content_store 	decision_yes[2] 	3792
scalar three_caches_scenario_3_links_network.node[2].content_store 	decision_no[2] 	38926
scalar three_caches_scenario_3_links_network.node[3].core_layer 	interests[3] 	49667
scalar three_caches_scenario_3_links_network.node[3].core_layer 	data[3] 	46611
scalar three_caches_scenario_3_links_network.node[3].content_store 	p_hit[3] 	0.061529788390682
scalar three_caches_scenario_3_links_network.node[3].content_store 	hits[3] 	3056
scalar three_caches_scenario_3_links_network.node[3].content_store 	misses[3] 	46611
scalar three_caches_scenario_3_links_network.node[3].content_store 	decision_yes[3] 	42369
scalar three_caches_scenario_3_links_network.node[3].content_store 	decision_no[3] 	4242
scalar three_caches_scenario_3_links_network.node[4].core_layer 	interests[4] 	0
scalar three_caches_scenario_3_links_network.node[4].core_layer 	data[4] 	0
scalar three_caches_scenario_3_links_network.node[4].content_store 	p_hit[4] 	-nan
scalar three_caches_scenario_3_links_network.node[4].content_store 	hits[4] 	0
scalar three_caches_scenario_3_links_network.node[4].content_store 	misses[4] 	0
scalar three_caches_scenario_3_links_network.node[4].content_store 	decision_yes[4] 	0
scalar three_caches_scenario_3_links_network.node[4].content_store 	decision_no[4] 	0
scalar three_caches_scenario_3_links_network.node[5].core_layer 	interests[5] 	42718
scalar three_caches_scenario_3_links_network.node[5].core_layer 	repo_load[5] 	42718
scalar three_caches_scenario_3_links_network.node[5].core_layer 	data[5] 	0
scalar three_caches_scenario_3_links_network.node[5].content_store 	p_hit[5] 	0
scalar three_caches_scenario_3_links_network.node[5].content_store 	hits[5] 	0
scalar three_caches_scenario_3_links_network.node[5].content_store 	misses[5] 	42718
scalar three_caches_scenario_3_links_network.node[5].content_store 	decision_yes[5] 	0
scalar three_caches_scenario_3_links_network.node[5].content_store 	decision_no[5] 	42718
scalar three_caches_scenario_3_links_network.node[6].core_layer 	interests[6] 	46611
scalar three_caches_scenario_3_links_network.node[6].core_layer 	repo_load[6] 	46611
scalar three_caches_scenario_3_links_network.node[6].core_layer 	data[6] 	0
scalar three_caches_scenario_3_links_network.node[6].content_store 	p_hit[6] 	0
scalar three_caches_scenario_3_links_network.node[6].content_store 	hits[6] 	0
scalar three_caches_scenario_3_links_network.node[6].content_store 	misses[6] 	46611
scalar three_caches_scenario_3_links_network.node[6].content_store 	decision_yes[6] 	0
scalar three_caches_scenario_3_links_network.node[6].content_store 	decision_no[6] 	46611
scalar three_caches_scenario_3_links_network.client[0] 	hdistance[0] 	1.6957963370942
scalar three_caches_scenario_3_links_network.client[0] 	downloads[0] 	179748
scalar three_caches_scenario_3_links_network.client[0] 	avg_time[0] 	0
scalar three_caches_scenario_3_links_network.client[0] 	interests_sent[0] 	179748
