version 2
run General-6853-20140425-10:20:32-20485
attr D costprob0.02
attr F nrr
attr R lru
attr a 0
attr configname General
attr csize 9
attr ctlg 10^3
attr datetime 20140425-10:20:32
attr experiment General
attr inifile omnetpp.ini
attr iterationvars "$net=one_cache_scenario, $rep=17, $priceratiovalue=4, $a=0, $ctlg=10^3, $F=nrr, $ttl=1000, $D=costprob0.02, $R=lru, $csize=9"
attr iterationvars2 "$net=one_cache_scenario, $rep=17, $priceratiovalue=4, $a=0, $ctlg=10^3, $F=nrr, $ttl=1000, $D=costprob0.02, $R=lru, $csize=9, $repetition=0"
attr measurement "$net=one_cache_scenario, $rep=17, $priceratiovalue=4, $a=0, $ctlg=10^3, $F=nrr, $ttl=1000, $D=costprob0.02, $R=lru, $csize=9"
attr net one_cache_scenario
attr network networks.${net=one_cache_scenario}_network
attr priceratiovalue 4
attr processid 20485
attr rep 17
attr repetition 0
attr replication #0
attr resultdir results
attr runnumber 6853
attr seedset 17
attr ttl 1000

scalar . 	a 	0
scalar . 	csize 	9
scalar . 	priceratiovalue 	4
scalar . 	rep 	17
scalar . 	ttl 	1000
scalar one_cache_scenario_network.content_distribution 	repo-0 	3
scalar one_cache_scenario_network.content_distribution 	repo-1 	4
scalar one_cache_scenario_network.content_distribution 	client-0 	0
scalar one_cache_scenario_network.content_distribution 	repo-0_card 	538
scalar one_cache_scenario_network.content_distribution 	repo-1_card 	462
scalar one_cache_scenario_network.statistics 	p_hit 	0.0027349189550493
scalar one_cache_scenario_network.statistics 	interests 	107718
scalar one_cache_scenario_network.statistics 	data 	71615.6
scalar one_cache_scenario_network.statistics 	hdistance 	1.9836797553625
scalar one_cache_scenario_network.statistics 	avg_time 	0
scalar one_cache_scenario_network.statistics 	downloads 	180512
scalar one_cache_scenario_network.statistics 	total_cost 	84845
scalar one_cache_scenario_network.statistics 	interests_sent 	180512
scalar one_cache_scenario_network.node[0].core_layer 	interests[0] 	180512
scalar one_cache_scenario_network.node[0].core_layer 	data[0] 	179039
scalar one_cache_scenario_network.node[0].core_layer 	repo_int[0] 	179039
scalar one_cache_scenario_network.node[0].content_store 	p_hit[0] 	0.0081601223187378
scalar one_cache_scenario_network.node[0].content_store 	hits[0] 	1473
scalar one_cache_scenario_network.node[0].content_store 	misses[0] 	179039
scalar one_cache_scenario_network.node[0].content_store 	decision_yes[0] 	1693
scalar one_cache_scenario_network.node[0].content_store 	decision_no[0] 	177346
scalar one_cache_scenario_network.node[1].core_layer 	interests[1] 	97310
scalar one_cache_scenario_network.node[1].core_layer 	data[1] 	97310
scalar one_cache_scenario_network.node[1].content_store 	p_hit[1] 	0
scalar one_cache_scenario_network.node[1].content_store 	hits[1] 	0
scalar one_cache_scenario_network.node[1].content_store 	misses[1] 	97310
scalar one_cache_scenario_network.node[1].content_store 	decision_yes[1] 	0
scalar one_cache_scenario_network.node[1].content_store 	decision_no[1] 	97310
scalar one_cache_scenario_network.node[2].core_layer 	interests[2] 	81729
scalar one_cache_scenario_network.node[2].core_layer 	data[2] 	81729
scalar one_cache_scenario_network.node[2].content_store 	p_hit[2] 	0
scalar one_cache_scenario_network.node[2].content_store 	hits[2] 	0
scalar one_cache_scenario_network.node[2].content_store 	misses[2] 	81729
scalar one_cache_scenario_network.node[2].content_store 	decision_yes[2] 	0
scalar one_cache_scenario_network.node[2].content_store 	decision_no[2] 	81729
scalar one_cache_scenario_network.node[3].core_layer 	interests[3] 	97310
scalar one_cache_scenario_network.node[3].core_layer 	repo_load[3] 	97310
scalar one_cache_scenario_network.node[3].core_layer 	data[3] 	0
scalar one_cache_scenario_network.node[3].content_store 	p_hit[3] 	0
scalar one_cache_scenario_network.node[3].content_store 	hits[3] 	0
scalar one_cache_scenario_network.node[3].content_store 	misses[3] 	97310
scalar one_cache_scenario_network.node[3].content_store 	decision_yes[3] 	0
scalar one_cache_scenario_network.node[3].content_store 	decision_no[3] 	97310
scalar one_cache_scenario_network.node[4].core_layer 	interests[4] 	81729
scalar one_cache_scenario_network.node[4].core_layer 	repo_load[4] 	81729
scalar one_cache_scenario_network.node[4].core_layer 	data[4] 	0
scalar one_cache_scenario_network.node[4].content_store 	p_hit[4] 	0
scalar one_cache_scenario_network.node[4].content_store 	hits[4] 	0
scalar one_cache_scenario_network.node[4].content_store 	misses[4] 	81729
scalar one_cache_scenario_network.node[4].content_store 	decision_yes[4] 	0
scalar one_cache_scenario_network.node[4].content_store 	decision_no[4] 	81729
scalar one_cache_scenario_network.client[0] 	hdistance[0] 	1.9836797553625
scalar one_cache_scenario_network.client[0] 	downloads[0] 	180512
scalar one_cache_scenario_network.client[0] 	avg_time[0] 	0
scalar one_cache_scenario_network.client[0] 	interests_sent[0] 	180512
