version 2
run General-198-20140502-11:07:39-13982
attr D costprob0.05
attr F nrr
attr R lru
attr a 1
attr configname General
attr csize 1e3
attr ctlg 1e5
attr datetime 20140502-11:07:39
attr experiment General
attr inifile omnetpp.ini
attr iterationvars "$net=three_caches_scenario_3_links, $rep=2, $priceratiovalue=2, $weights=0.333_0.333_0.334, $a=1, $ctlg=1e5, $F=nrr, $ttl=1000, $D=costprob0.05, $xi=1, $R=lru, $csize=1e3"
attr iterationvars2 "$net=three_caches_scenario_3_links, $rep=2, $priceratiovalue=2, $weights=0.333_0.333_0.334, $a=1, $ctlg=1e5, $F=nrr, $ttl=1000, $D=costprob0.05, $xi=1, $R=lru, $csize=1e3, $repetition=0"
attr measurement "$net=three_caches_scenario_3_links, $rep=2, $priceratiovalue=2, $weights=0.333_0.333_0.334, $a=1, $ctlg=1e5, $F=nrr, $ttl=1000, $D=costprob0.05, $xi=1, $R=lru, $csize=1e3"
attr net three_caches_scenario_3_links
attr network networks.${net=three_caches_scenario_3_links}_network
attr priceratiovalue 2
attr processid 13982
attr rep 2
attr repetition 0
attr replication #0
attr resultdir results
attr runnumber 198
attr seedset 2
attr ttl 1000
attr weights 0.333_0.333_0.334
attr xi 1

scalar . 	a 	1
scalar . 	csize 	1e3
scalar . 	ctlg 	1e5
scalar . 	priceratiovalue 	2
scalar . 	rep 	2
scalar . 	ttl 	1000
scalar . 	xi 	1
scalar three_caches_scenario_3_links_network.content_distribution 	repo-0 	4
scalar three_caches_scenario_3_links_network.content_distribution 	repo-1 	5
scalar three_caches_scenario_3_links_network.content_distribution 	repo-2 	6
scalar three_caches_scenario_3_links_network.content_distribution 	client-0 	0
scalar three_caches_scenario_3_links_network.content_distribution 	repo-0_card 	33264
scalar three_caches_scenario_3_links_network.content_distribution 	repo-1_card 	33272
scalar three_caches_scenario_3_links_network.content_distribution 	repo-2_card 	33464
scalar three_caches_scenario_3_links_network.statistics 	p_hit 	0.1280463338169
scalar three_caches_scenario_3_links_network.statistics 	interests 	64796.857142857
scalar three_caches_scenario_3_links_network.statistics 	data 	39102.142857143
scalar three_caches_scenario_3_links_network.statistics 	hdistance 	1.8019659407438
scalar three_caches_scenario_3_links_network.statistics 	avg_time 	0
scalar three_caches_scenario_3_links_network.statistics 	downloads 	179863
scalar three_caches_scenario_3_links_network.statistics 	total_cost 	75614
scalar three_caches_scenario_3_links_network.statistics 	total_replicas 	100000
scalar three_caches_scenario_3_links_network.statistics 	interests_sent 	179863
scalar three_caches_scenario_3_links_network.node[0].core_layer 	interests[0] 	179863
scalar three_caches_scenario_3_links_network.node[0].core_layer 	data[0] 	151931
scalar three_caches_scenario_3_links_network.node[0].core_layer 	repo_int[0] 	121784
scalar three_caches_scenario_3_links_network.node[0].content_store 	p_hit[0] 	0.15529597527007
scalar three_caches_scenario_3_links_network.node[0].content_store 	hits[0] 	27932
scalar three_caches_scenario_3_links_network.node[0].content_store 	misses[0] 	151931
scalar three_caches_scenario_3_links_network.node[0].content_store 	decision_yes[0] 	3843
scalar three_caches_scenario_3_links_network.node[0].content_store 	decision_no[0] 	148088
scalar three_caches_scenario_3_links_network.node[1].core_layer 	interests[1] 	71392
scalar three_caches_scenario_3_links_network.node[1].core_layer 	data[1] 	71392
scalar three_caches_scenario_3_links_network.node[1].content_store 	p_hit[1] 	0
scalar three_caches_scenario_3_links_network.node[1].content_store 	hits[1] 	0
scalar three_caches_scenario_3_links_network.node[1].content_store 	misses[1] 	71392
scalar three_caches_scenario_3_links_network.node[1].content_store 	decision_yes[1] 	0
scalar three_caches_scenario_3_links_network.node[1].content_store 	decision_no[1] 	71392
scalar three_caches_scenario_3_links_network.node[2].core_layer 	interests[2] 	39126
scalar three_caches_scenario_3_links_network.node[2].core_layer 	data[2] 	25170
scalar three_caches_scenario_3_links_network.node[2].content_store 	p_hit[2] 	0.35669375862598
scalar three_caches_scenario_3_links_network.node[2].content_store 	hits[2] 	13956
scalar three_caches_scenario_3_links_network.node[2].content_store 	misses[2] 	25170
scalar three_caches_scenario_3_links_network.node[2].content_store 	decision_yes[2] 	1249
scalar three_caches_scenario_3_links_network.node[2].content_store 	decision_no[2] 	23921
scalar three_caches_scenario_3_links_network.node[3].core_layer 	interests[3] 	41413
scalar three_caches_scenario_3_links_network.node[3].core_layer 	data[3] 	25222
scalar three_caches_scenario_3_links_network.node[3].content_store 	p_hit[3] 	0.39096418998865
scalar three_caches_scenario_3_links_network.node[3].content_store 	hits[3] 	16191
scalar three_caches_scenario_3_links_network.node[3].content_store 	misses[3] 	25222
scalar three_caches_scenario_3_links_network.node[3].content_store 	decision_yes[3] 	2566
scalar three_caches_scenario_3_links_network.node[3].content_store 	decision_no[3] 	22656
scalar three_caches_scenario_3_links_network.node[4].core_layer 	interests[4] 	71392
scalar three_caches_scenario_3_links_network.node[4].core_layer 	repo_load[4] 	71392
scalar three_caches_scenario_3_links_network.node[4].core_layer 	data[4] 	0
scalar three_caches_scenario_3_links_network.node[4].content_store 	p_hit[4] 	0
scalar three_caches_scenario_3_links_network.node[4].content_store 	hits[4] 	0
scalar three_caches_scenario_3_links_network.node[4].content_store 	misses[4] 	71392
scalar three_caches_scenario_3_links_network.node[4].content_store 	decision_yes[4] 	0
scalar three_caches_scenario_3_links_network.node[4].content_store 	decision_no[4] 	71392
scalar three_caches_scenario_3_links_network.node[5].core_layer 	interests[5] 	25170
scalar three_caches_scenario_3_links_network.node[5].core_layer 	repo_load[5] 	25170
scalar three_caches_scenario_3_links_network.node[5].core_layer 	data[5] 	0
scalar three_caches_scenario_3_links_network.node[5].content_store 	p_hit[5] 	0
scalar three_caches_scenario_3_links_network.node[5].content_store 	hits[5] 	0
scalar three_caches_scenario_3_links_network.node[5].content_store 	misses[5] 	25170
scalar three_caches_scenario_3_links_network.node[5].content_store 	decision_yes[5] 	0
scalar three_caches_scenario_3_links_network.node[5].content_store 	decision_no[5] 	25170
scalar three_caches_scenario_3_links_network.node[6].core_layer 	interests[6] 	25222
scalar three_caches_scenario_3_links_network.node[6].core_layer 	repo_load[6] 	25222
scalar three_caches_scenario_3_links_network.node[6].core_layer 	data[6] 	0
scalar three_caches_scenario_3_links_network.node[6].content_store 	p_hit[6] 	0
scalar three_caches_scenario_3_links_network.node[6].content_store 	hits[6] 	0
scalar three_caches_scenario_3_links_network.node[6].content_store 	misses[6] 	25222
scalar three_caches_scenario_3_links_network.node[6].content_store 	decision_yes[6] 	0
scalar three_caches_scenario_3_links_network.node[6].content_store 	decision_no[6] 	25222
scalar three_caches_scenario_3_links_network.client[0] 	hdistance[0] 	1.8019659407438
scalar three_caches_scenario_3_links_network.client[0] 	downloads[0] 	179863
scalar three_caches_scenario_3_links_network.client[0] 	avg_time[0] 	0
scalar three_caches_scenario_3_links_network.client[0] 	interests_sent[0] 	179863
