version 2
run General-48-20140502-01:12:27-8916
attr D costprob0.1
attr F nrr
attr R lru
attr a 1
attr configname General
attr csize 1e3
attr ctlg 1e5
attr datetime 20140502-01:12:27
attr experiment General
attr inifile omnetpp.ini
attr iterationvars "$net=three_caches_scenario_3_links, $rep=1, $priceratiovalue=1, $weights=0.2_0.4_0.4, $a=1, $ctlg=1e5, $F=nrr, $ttl=1000, $D=costprob0.1, $xi=1, $R=lru, $csize=1e3"
attr iterationvars2 "$net=three_caches_scenario_3_links, $rep=1, $priceratiovalue=1, $weights=0.2_0.4_0.4, $a=1, $ctlg=1e5, $F=nrr, $ttl=1000, $D=costprob0.1, $xi=1, $R=lru, $csize=1e3, $repetition=0"
attr measurement "$net=three_caches_scenario_3_links, $rep=1, $priceratiovalue=1, $weights=0.2_0.4_0.4, $a=1, $ctlg=1e5, $F=nrr, $ttl=1000, $D=costprob0.1, $xi=1, $R=lru, $csize=1e3"
attr net three_caches_scenario_3_links
attr network networks.${net=three_caches_scenario_3_links}_network
attr priceratiovalue 1
attr processid 8916
attr rep 1
attr repetition 0
attr replication #0
attr resultdir results
attr runnumber 48
attr seedset 1
attr ttl 1000
attr weights 0.2_0.4_0.4
attr xi 1

scalar . 	a 	1
scalar . 	csize 	1e3
scalar . 	ctlg 	1e5
scalar . 	priceratiovalue 	1
scalar . 	rep 	1
scalar . 	ttl 	1000
scalar . 	xi 	1
scalar three_caches_scenario_3_links_network.content_distribution 	repo-0 	4
scalar three_caches_scenario_3_links_network.content_distribution 	repo-1 	5
scalar three_caches_scenario_3_links_network.content_distribution 	repo-2 	6
scalar three_caches_scenario_3_links_network.content_distribution 	client-0 	0
scalar three_caches_scenario_3_links_network.content_distribution 	repo-0_card 	19939
scalar three_caches_scenario_3_links_network.content_distribution 	repo-1_card 	40008
scalar three_caches_scenario_3_links_network.content_distribution 	repo-2_card 	40053
scalar three_caches_scenario_3_links_network.statistics 	p_hit 	0.17813565126258
scalar three_caches_scenario_3_links_network.statistics 	interests 	62157.285714286
scalar three_caches_scenario_3_links_network.statistics 	data 	36500.857142857
scalar three_caches_scenario_3_links_network.statistics 	hdistance 	1.778752192433
scalar three_caches_scenario_3_links_network.statistics 	avg_time 	0
scalar three_caches_scenario_3_links_network.statistics 	downloads 	179595
scalar three_caches_scenario_3_links_network.statistics 	total_cost 	63949
scalar three_caches_scenario_3_links_network.statistics 	total_replicas 	100000
scalar three_caches_scenario_3_links_network.statistics 	interests_sent 	179595
scalar three_caches_scenario_3_links_network.node[0].core_layer 	interests[0] 	179595
scalar three_caches_scenario_3_links_network.node[0].core_layer 	data[0] 	153418
scalar three_caches_scenario_3_links_network.node[0].core_layer 	repo_int[0] 	102088
scalar three_caches_scenario_3_links_network.node[0].content_store 	p_hit[0] 	0.14575572816615
scalar three_caches_scenario_3_links_network.node[0].content_store 	hits[0] 	26177
scalar three_caches_scenario_3_links_network.node[0].content_store 	misses[0] 	153418
scalar three_caches_scenario_3_links_network.node[0].content_store 	decision_yes[0] 	8134
scalar three_caches_scenario_3_links_network.node[0].content_store 	decision_no[0] 	145284
scalar three_caches_scenario_3_links_network.node[1].core_layer 	interests[1] 	38139
scalar three_caches_scenario_3_links_network.node[1].core_layer 	data[1] 	38139
scalar three_caches_scenario_3_links_network.node[1].content_store 	p_hit[1] 	0
scalar three_caches_scenario_3_links_network.node[1].content_store 	hits[1] 	0
scalar three_caches_scenario_3_links_network.node[1].content_store 	misses[1] 	38139
scalar three_caches_scenario_3_links_network.node[1].content_store 	decision_yes[1] 	0
scalar three_caches_scenario_3_links_network.node[1].content_store 	decision_no[1] 	38139
scalar three_caches_scenario_3_links_network.node[2].core_layer 	interests[2] 	67091
scalar three_caches_scenario_3_links_network.node[2].core_layer 	data[2] 	31970
scalar three_caches_scenario_3_links_network.node[2].content_store 	p_hit[2] 	0.5234830305108
scalar three_caches_scenario_3_links_network.node[2].content_store 	hits[2] 	35121
scalar three_caches_scenario_3_links_network.node[2].content_store 	misses[2] 	31970
scalar three_caches_scenario_3_links_network.node[2].content_store 	decision_yes[2] 	4128
scalar three_caches_scenario_3_links_network.node[2].content_store 	decision_no[2] 	27842
scalar three_caches_scenario_3_links_network.node[3].core_layer 	interests[3] 	48188
scalar three_caches_scenario_3_links_network.node[3].core_layer 	data[3] 	31979
scalar three_caches_scenario_3_links_network.node[3].content_store 	p_hit[3] 	0.33637005063501
scalar three_caches_scenario_3_links_network.node[3].content_store 	hits[3] 	16209
scalar three_caches_scenario_3_links_network.node[3].content_store 	misses[3] 	31979
scalar three_caches_scenario_3_links_network.node[3].content_store 	decision_yes[3] 	4048
scalar three_caches_scenario_3_links_network.node[3].content_store 	decision_no[3] 	27931
scalar three_caches_scenario_3_links_network.node[4].core_layer 	interests[4] 	38139
scalar three_caches_scenario_3_links_network.node[4].core_layer 	repo_load[4] 	38139
scalar three_caches_scenario_3_links_network.node[4].core_layer 	data[4] 	0
scalar three_caches_scenario_3_links_network.node[4].content_store 	p_hit[4] 	0
scalar three_caches_scenario_3_links_network.node[4].content_store 	hits[4] 	0
scalar three_caches_scenario_3_links_network.node[4].content_store 	misses[4] 	38139
scalar three_caches_scenario_3_links_network.node[4].content_store 	decision_yes[4] 	0
scalar three_caches_scenario_3_links_network.node[4].content_store 	decision_no[4] 	38139
scalar three_caches_scenario_3_links_network.node[5].core_layer 	interests[5] 	31970
scalar three_caches_scenario_3_links_network.node[5].core_layer 	repo_load[5] 	31970
scalar three_caches_scenario_3_links_network.node[5].core_layer 	data[5] 	0
scalar three_caches_scenario_3_links_network.node[5].content_store 	p_hit[5] 	0
scalar three_caches_scenario_3_links_network.node[5].content_store 	hits[5] 	0
scalar three_caches_scenario_3_links_network.node[5].content_store 	misses[5] 	31970
scalar three_caches_scenario_3_links_network.node[5].content_store 	decision_yes[5] 	0
scalar three_caches_scenario_3_links_network.node[5].content_store 	decision_no[5] 	31970
scalar three_caches_scenario_3_links_network.node[6].core_layer 	interests[6] 	31979
scalar three_caches_scenario_3_links_network.node[6].core_layer 	repo_load[6] 	31979
scalar three_caches_scenario_3_links_network.node[6].core_layer 	data[6] 	0
scalar three_caches_scenario_3_links_network.node[6].content_store 	p_hit[6] 	0
scalar three_caches_scenario_3_links_network.node[6].content_store 	hits[6] 	0
scalar three_caches_scenario_3_links_network.node[6].content_store 	misses[6] 	31979
scalar three_caches_scenario_3_links_network.node[6].content_store 	decision_yes[6] 	0
scalar three_caches_scenario_3_links_network.node[6].content_store 	decision_no[6] 	31979
scalar three_caches_scenario_3_links_network.client[0] 	hdistance[0] 	1.778752192433
scalar three_caches_scenario_3_links_network.client[0] 	downloads[0] 	179595
scalar three_caches_scenario_3_links_network.client[0] 	avg_time[0] 	0
scalar three_caches_scenario_3_links_network.client[0] 	interests_sent[0] 	179595
