version 2
run General-3467-20140423-19:59:42-30510
attr D costprob0.01
attr F nrr
attr R lru
attr a 0
attr configname General
attr csize 2
attr ctlg 10^3
attr datetime 20140423-19:59:42
attr experiment General
attr inifile omnetpp.ini
attr iterationvars "$net=simple_scenario, $rep=10, $priceratiovalue=7, $a=0, $ctlg=10^3, $F=nrr, $ttl=1000, $D=costprob0.01, $R=lru, $csize=2"
attr iterationvars2 "$net=simple_scenario, $rep=10, $priceratiovalue=7, $a=0, $ctlg=10^3, $F=nrr, $ttl=1000, $D=costprob0.01, $R=lru, $csize=2, $repetition=0"
attr measurement "$net=simple_scenario, $rep=10, $priceratiovalue=7, $a=0, $ctlg=10^3, $F=nrr, $ttl=1000, $D=costprob0.01, $R=lru, $csize=2"
attr net simple_scenario
attr network networks.${net=simple_scenario}_network
attr priceratiovalue 7
attr processid 30510
attr rep 10
attr repetition 0
attr replication #0
attr resultdir results
attr runnumber 3467
attr seedset 10
attr ttl 1000

scalar . 	a 	0
scalar . 	csize 	2
scalar . 	priceratiovalue 	7
scalar . 	rep 	10
scalar . 	ttl 	1000
scalar simple_scenario_network.content_distribution 	repo-0 	3
scalar simple_scenario_network.content_distribution 	repo-1 	4
scalar simple_scenario_network.content_distribution 	client-0 	0
scalar simple_scenario_network.content_distribution 	repo-0_card 	519
scalar simple_scenario_network.content_distribution 	repo-1_card 	481
scalar simple_scenario_network.statistics 	p_hit 	0.0019576959367594
scalar simple_scenario_network.statistics 	interests 	107677.6
scalar simple_scenario_network.statistics 	data 	71690.8
scalar simple_scenario_network.statistics 	hdistance 	2.9862838596374
scalar simple_scenario_network.statistics 	avg_time 	0.001999781351
scalar simple_scenario_network.statistics 	downloads 	179934
scalar simple_scenario_network.statistics 	total_cost 	86938
scalar simple_scenario_network.node[0].core_layer 	interests[0] 	179934
scalar simple_scenario_network.node[0].core_layer 	data[0] 	179574
scalar simple_scenario_network.node[0].core_layer 	repo_int[0] 	178880
scalar simple_scenario_network.node[0].content_store 	p_hit[0] 	0.0020007336023209
scalar simple_scenario_network.node[0].content_store 	hits[0] 	360
scalar simple_scenario_network.node[0].content_store 	misses[0] 	179574
scalar simple_scenario_network.node[1].core_layer 	interests[1] 	93121
scalar simple_scenario_network.node[1].core_layer 	data[1] 	92776
scalar simple_scenario_network.node[1].content_store 	p_hit[1] 	0.0037048571213797
scalar simple_scenario_network.node[1].content_store 	hits[1] 	345
scalar simple_scenario_network.node[1].content_store 	misses[1] 	92776
scalar simple_scenario_network.node[2].core_layer 	interests[2] 	86453
scalar simple_scenario_network.node[2].core_layer 	data[2] 	86104
scalar simple_scenario_network.node[2].content_store 	p_hit[2] 	0.0040368755277434
scalar simple_scenario_network.node[2].content_store 	hits[2] 	349
scalar simple_scenario_network.node[2].content_store 	misses[2] 	86104
scalar simple_scenario_network.node[3].core_layer 	interests[3] 	92776
scalar simple_scenario_network.node[3].core_layer 	repo_load[3] 	92776
scalar simple_scenario_network.node[3].core_layer 	data[3] 	0
scalar simple_scenario_network.node[3].content_store 	p_hit[3] 	0
scalar simple_scenario_network.node[3].content_store 	hits[3] 	0
scalar simple_scenario_network.node[3].content_store 	misses[3] 	92776
scalar simple_scenario_network.node[4].core_layer 	interests[4] 	86104
scalar simple_scenario_network.node[4].core_layer 	repo_load[4] 	86104
scalar simple_scenario_network.node[4].core_layer 	data[4] 	0
scalar simple_scenario_network.node[4].content_store 	p_hit[4] 	0
scalar simple_scenario_network.node[4].content_store 	hits[4] 	0
scalar simple_scenario_network.node[4].content_store 	misses[4] 	86104
scalar simple_scenario_network.client[0] 	hdistance[0] 	2.9862838596374
scalar simple_scenario_network.client[0] 	downloads[0] 	179934
scalar simple_scenario_network.client[0] 	avg_time[0] 	0.001999781351
