version 2
run General-131-20140426-05:06:54-21938
attr D costprob0.02
attr F nrr
attr R lru
attr a 1
attr configname General
attr csize 1000
attr ctlg 10^5
attr datetime 20140426-05:06:54
attr experiment General
attr inifile omnetpp.ini
attr iterationvars "$net=one_cache_scenario, $rep=5, $priceratiovalue=4, $a=1, $ctlg=10^5, $F=nrr, $ttl=1000, $D=costprob0.02, $R=lru, $csize=1000"
attr iterationvars2 "$net=one_cache_scenario, $rep=5, $priceratiovalue=4, $a=1, $ctlg=10^5, $F=nrr, $ttl=1000, $D=costprob0.02, $R=lru, $csize=1000, $repetition=0"
attr measurement "$net=one_cache_scenario, $rep=5, $priceratiovalue=4, $a=1, $ctlg=10^5, $F=nrr, $ttl=1000, $D=costprob0.02, $R=lru, $csize=1000"
attr net one_cache_scenario
attr network networks.${net=one_cache_scenario}_network
attr priceratiovalue 4
attr processid 21938
attr rep 5
attr repetition 0
attr replication #0
attr resultdir results
attr runnumber 131
attr seedset 5
attr ttl 1000

scalar . 	a 	1
scalar . 	csize 	1000
scalar . 	priceratiovalue 	4
scalar . 	rep 	5
scalar . 	ttl 	1000
scalar one_cache_scenario_network.content_distribution 	repo-0 	3
scalar one_cache_scenario_network.content_distribution 	repo-1 	4
scalar one_cache_scenario_network.content_distribution 	client-0 	0
scalar one_cache_scenario_network.content_distribution 	repo-0_card 	49923
scalar one_cache_scenario_network.content_distribution 	repo-1_card 	50077
scalar one_cache_scenario_network.statistics 	p_hit 	0.26366708914237
scalar one_cache_scenario_network.statistics 	interests 	71010
scalar one_cache_scenario_network.statistics 	data 	34858
scalar one_cache_scenario_network.statistics 	hdistance 	0.96420668289444
scalar one_cache_scenario_network.statistics 	avg_time 	0
scalar one_cache_scenario_network.statistics 	downloads 	180760
scalar one_cache_scenario_network.statistics 	total_cost 	40541
scalar one_cache_scenario_network.statistics 	interests_sent 	180760
scalar one_cache_scenario_network.node[0].core_layer 	interests[0] 	180760
scalar one_cache_scenario_network.node[0].core_layer 	data[0] 	87145
scalar one_cache_scenario_network.node[0].core_layer 	repo_int[0] 	87145
scalar one_cache_scenario_network.node[0].content_store 	p_hit[0] 	0.51789665855278
scalar one_cache_scenario_network.node[0].content_store 	hits[0] 	93615
scalar one_cache_scenario_network.node[0].content_store 	misses[0] 	87145
scalar one_cache_scenario_network.node[0].content_store 	decision_yes[0] 	847
scalar one_cache_scenario_network.node[0].content_store 	decision_no[0] 	86298
scalar one_cache_scenario_network.node[1].core_layer 	interests[1] 	48625
scalar one_cache_scenario_network.node[1].core_layer 	data[1] 	48625
scalar one_cache_scenario_network.node[1].content_store 	p_hit[1] 	0
scalar one_cache_scenario_network.node[1].content_store 	hits[1] 	0
scalar one_cache_scenario_network.node[1].content_store 	misses[1] 	48625
scalar one_cache_scenario_network.node[1].content_store 	decision_yes[1] 	0
scalar one_cache_scenario_network.node[1].content_store 	decision_no[1] 	48625
scalar one_cache_scenario_network.node[2].core_layer 	interests[2] 	38520
scalar one_cache_scenario_network.node[2].core_layer 	data[2] 	38520
scalar one_cache_scenario_network.node[2].content_store 	p_hit[2] 	0
scalar one_cache_scenario_network.node[2].content_store 	hits[2] 	0
scalar one_cache_scenario_network.node[2].content_store 	misses[2] 	38520
scalar one_cache_scenario_network.node[2].content_store 	decision_yes[2] 	0
scalar one_cache_scenario_network.node[2].content_store 	decision_no[2] 	38520
scalar one_cache_scenario_network.node[3].core_layer 	interests[3] 	48625
scalar one_cache_scenario_network.node[3].core_layer 	repo_load[3] 	48625
scalar one_cache_scenario_network.node[3].core_layer 	data[3] 	0
scalar one_cache_scenario_network.node[3].content_store 	p_hit[3] 	0
scalar one_cache_scenario_network.node[3].content_store 	hits[3] 	0
scalar one_cache_scenario_network.node[3].content_store 	misses[3] 	48625
scalar one_cache_scenario_network.node[3].content_store 	decision_yes[3] 	0
scalar one_cache_scenario_network.node[3].content_store 	decision_no[3] 	48625
scalar one_cache_scenario_network.node[4].core_layer 	interests[4] 	38520
scalar one_cache_scenario_network.node[4].core_layer 	repo_load[4] 	38520
scalar one_cache_scenario_network.node[4].core_layer 	data[4] 	0
scalar one_cache_scenario_network.node[4].content_store 	p_hit[4] 	0
scalar one_cache_scenario_network.node[4].content_store 	hits[4] 	0
scalar one_cache_scenario_network.node[4].content_store 	misses[4] 	38520
scalar one_cache_scenario_network.node[4].content_store 	decision_yes[4] 	0
scalar one_cache_scenario_network.node[4].content_store 	decision_no[4] 	38520
scalar one_cache_scenario_network.client[0] 	hdistance[0] 	0.96420668289444
scalar one_cache_scenario_network.client[0] 	downloads[0] 	180760
scalar one_cache_scenario_network.client[0] 	avg_time[0] 	0
scalar one_cache_scenario_network.client[0] 	interests_sent[0] 	180760
