version 2
run General-6-20140626-16:20:36-10614
attr D fix0.01
attr F spr
attr R lru
attr a 1
attr configname General
attr csize 1e3
attr ctlg 1e5
attr datetime 20140626-16:20:36
attr experiment General
attr inifile omnetpp.ini
attr iterationvars "$net=geant_cost, $rep=4, $priceratiovalue=10, $weights=0.333_0.333_0.334, $lambda=100, $a=1, $ctlg=1e5, $F=spr, $ttl=1000, $D=fix0.01, $xi=1, $R=lru, $csize=1e3, $pricebits=0, $mytime=1800"
attr iterationvars2 "$net=geant_cost, $rep=4, $priceratiovalue=10, $weights=0.333_0.333_0.334, $lambda=100, $a=1, $ctlg=1e5, $F=spr, $ttl=1000, $D=fix0.01, $xi=1, $R=lru, $csize=1e3, $pricebits=0, $mytime=1800, $repetition=0"
attr lambda 100
attr measurement "$net=geant_cost, $rep=4, $priceratiovalue=10, $weights=0.333_0.333_0.334, $lambda=100, $a=1, $ctlg=1e5, $F=spr, $ttl=1000, $D=fix0.01, $xi=1, $R=lru, $csize=1e3, $pricebits=0, $mytime=1800"
attr mytime 1800
attr net geant_cost
attr network "networks.${net=geant_cost, abilene_cost}_network"
attr pricebits 0
attr priceratiovalue 10
attr processid 10614
attr rep 4
attr repetition 0
attr replication #0
attr resultdir results
attr runnumber 6
attr seedset 4
attr ttl 1000
attr weights 0.333_0.333_0.334
attr xi 1

scalar . 	a 	1
scalar . 	csize 	1e3
scalar . 	ctlg 	1e5
scalar . 	lambda 	100
scalar . 	mytime 	1800
scalar . 	pricebits 	0
scalar . 	priceratiovalue 	10
scalar . 	rep 	4
scalar . 	ttl 	1000
scalar . 	xi 	1
scalar geant_cost_network.content_distribution 	repo-0 	22
scalar geant_cost_network.content_distribution 	repo-1 	23
scalar geant_cost_network.content_distribution 	repo-2 	24
scalar geant_cost_network.content_distribution 	client-0 	20
scalar geant_cost_network.content_distribution 	client-1 	10
scalar geant_cost_network.content_distribution 	client-2 	12
scalar geant_cost_network.content_distribution 	client-3 	9
scalar geant_cost_network.content_distribution 	client-4 	5
scalar geant_cost_network.content_distribution 	repo-0_card 	33272
scalar geant_cost_network.content_distribution 	repo-1_card 	33152
scalar geant_cost_network.content_distribution 	repo-2_card 	33576
scalar geant_cost_network.statistics 	repo_popularity[0] 	0.28234107170654
scalar geant_cost_network.statistics 	repo_popularity[1] 	0.30413978820018
scalar geant_cost_network.statistics 	repo_popularity[2] 	0.41351914009327
scalar geant_cost_network.statistics 	stabilization_time 	36060
scalar geant_cost_network.node[7].face$o[4].channel 	price[7] 	0
scalar geant_cost_network.node[7].face$o[4].channel 	represented_price[7] 	0
scalar geant_cost_network.node[8].face$o[3].channel 	price[8] 	0
scalar geant_cost_network.node[8].face$o[3].channel 	represented_price[8] 	0
scalar geant_cost_network.node[21].face$o[5].channel 	price[21] 	0
scalar geant_cost_network.node[21].face$o[5].channel 	represented_price[21] 	0
scalar geant_cost_network.node[22].face$o[1].channel 	price[22] 	0
scalar geant_cost_network.node[22].face$o[1].channel 	represented_price[22] 	0
scalar geant_cost_network.node[23].face$o[1].channel 	price[23] 	1
scalar geant_cost_network.node[23].face$o[1].channel 	represented_price[23] 	1
scalar geant_cost_network.node[24].face$o[1].channel 	price[24] 	10
scalar geant_cost_network.node[24].face$o[1].channel 	represented_price[24] 	10
scalar geant_cost_network.statistics 	p_hit 	0.13382450872495
scalar geant_cost_network.statistics 	interests 	117068.84
scalar geant_cost_network.statistics 	data 	81084.84
scalar geant_cost_network.statistics 	hdistance 	2.8185599910351
scalar geant_cost_network.statistics 	avg_time 	0.004249461854
scalar geant_cost_network.statistics 	downloads 	899498
scalar geant_cost_network.statistics 	total_cost 	1791674
scalar geant_cost_network.statistics 	total_replicas 	100000
scalar geant_cost_network.statistics 	inner_hit 	0.43549290826661
scalar geant_cost_network.statistics 	interests_sent 	899598
scalar geant_cost_network.node[0].core_layer 	interests[0] 	0
scalar geant_cost_network.node[0].core_layer 	data[0] 	0
scalar geant_cost_network.node[0].core_layer 	repo_int[0] 	507773
scalar geant_cost_network.node[0].content_store 	p_hit[0] 	-nan
scalar geant_cost_network.node[0].content_store 	hits[0] 	0
scalar geant_cost_network.node[0].content_store 	misses[0] 	0
scalar geant_cost_network.node[0].content_store 	decision_yes[0] 	0
scalar geant_cost_network.node[0].content_store 	decision_no[0] 	0
scalar geant_cost_network.node[0].content_store 	decision_ratio[0] 	0
scalar geant_cost_network.node[1].core_layer 	interests[1] 	0
scalar geant_cost_network.node[1].core_layer 	data[1] 	0
scalar geant_cost_network.node[1].content_store 	p_hit[1] 	-nan
scalar geant_cost_network.node[1].content_store 	hits[1] 	0
scalar geant_cost_network.node[1].content_store 	misses[1] 	0
scalar geant_cost_network.node[1].content_store 	decision_yes[1] 	0
scalar geant_cost_network.node[1].content_store 	decision_no[1] 	0
scalar geant_cost_network.node[1].content_store 	decision_ratio[1] 	0
scalar geant_cost_network.node[2].core_layer 	interests[2] 	0
scalar geant_cost_network.node[2].core_layer 	data[2] 	0
scalar geant_cost_network.node[2].content_store 	p_hit[2] 	-nan
scalar geant_cost_network.node[2].content_store 	hits[2] 	0
scalar geant_cost_network.node[2].content_store 	misses[2] 	0
scalar geant_cost_network.node[2].content_store 	decision_yes[2] 	0
scalar geant_cost_network.node[2].content_store 	decision_no[2] 	0
scalar geant_cost_network.node[2].content_store 	decision_ratio[2] 	0
scalar geant_cost_network.node[3].core_layer 	interests[3] 	153703
scalar geant_cost_network.node[3].core_layer 	data[3] 	143715
scalar geant_cost_network.node[3].content_store 	p_hit[3] 	0.064982466184785
scalar geant_cost_network.node[3].content_store 	hits[3] 	9988
scalar geant_cost_network.node[3].content_store 	misses[3] 	143715
scalar geant_cost_network.node[3].content_store 	decision_yes[3] 	1371
scalar geant_cost_network.node[3].content_store 	decision_no[3] 	142344
scalar geant_cost_network.node[3].content_store 	decision_ratio[3] 	0.009539714017326
scalar geant_cost_network.node[4].core_layer 	interests[4] 	218367
scalar geant_cost_network.node[4].core_layer 	data[4] 	210824
scalar geant_cost_network.node[4].content_store 	p_hit[4] 	0.034529026821818
scalar geant_cost_network.node[4].content_store 	hits[4] 	7540
scalar geant_cost_network.node[4].content_store 	misses[4] 	210827
scalar geant_cost_network.node[4].content_store 	decision_yes[4] 	2085
scalar geant_cost_network.node[4].content_store 	decision_no[4] 	208739
scalar geant_cost_network.node[4].content_store 	decision_ratio[4] 	0.0098897658710583
scalar geant_cost_network.node[5].core_layer 	interests[5] 	180216
scalar geant_cost_network.node[5].core_layer 	data[5] 	120370
scalar geant_cost_network.node[5].content_store 	p_hit[5] 	0.33191836462911
scalar geant_cost_network.node[5].content_store 	hits[5] 	59817
scalar geant_cost_network.node[5].content_store 	misses[5] 	120399
scalar geant_cost_network.node[5].content_store 	decision_yes[5] 	1128
scalar geant_cost_network.node[5].content_store 	decision_no[5] 	119242
scalar geant_cost_network.node[5].content_store 	decision_ratio[5] 	0.0093711057572485
scalar geant_cost_network.node[6].core_layer 	interests[6] 	80917
scalar geant_cost_network.node[6].core_layer 	data[6] 	73772
scalar geant_cost_network.node[6].content_store 	p_hit[6] 	0.088300357156098
scalar geant_cost_network.node[6].content_store 	hits[6] 	7145
scalar geant_cost_network.node[6].content_store 	misses[6] 	73772
scalar geant_cost_network.node[6].content_store 	decision_yes[6] 	749
scalar geant_cost_network.node[6].content_store 	decision_no[6] 	73023
scalar geant_cost_network.node[6].content_store 	decision_ratio[6] 	0.010152903540639
scalar geant_cost_network.node[7].core_layer 	interests[7] 	264773
scalar geant_cost_network.node[7].core_layer 	data[7] 	247970
scalar geant_cost_network.node[7].content_store 	p_hit[7] 	0.063454355240149
scalar geant_cost_network.node[7].content_store 	hits[7] 	16801
scalar geant_cost_network.node[7].content_store 	misses[7] 	247972
scalar geant_cost_network.node[7].content_store 	decision_yes[7] 	2447
scalar geant_cost_network.node[7].content_store 	decision_no[7] 	245523
scalar geant_cost_network.node[7].content_store 	decision_ratio[7] 	0.0098681292091785
scalar geant_cost_network.node[8].core_layer 	interests[8] 	265625
scalar geant_cost_network.node[8].core_layer 	data[8] 	246712
scalar geant_cost_network.node[8].content_store 	p_hit[8] 	0.071198117647059
scalar geant_cost_network.node[8].content_store 	hits[8] 	18912
scalar geant_cost_network.node[8].content_store 	misses[8] 	246713
scalar geant_cost_network.node[8].content_store 	decision_yes[8] 	2398
scalar geant_cost_network.node[8].content_store 	decision_no[8] 	244314
scalar geant_cost_network.node[8].content_store 	decision_ratio[8] 	0.0097198352735173
scalar geant_cost_network.node[9].core_layer 	interests[9] 	341951
scalar geant_cost_network.node[9].core_layer 	data[9] 	275915
scalar geant_cost_network.node[9].content_store 	p_hit[9] 	0.19297209249278
scalar geant_cost_network.node[9].content_store 	hits[9] 	65987
scalar geant_cost_network.node[9].content_store 	misses[9] 	275964
scalar geant_cost_network.node[9].content_store 	decision_yes[9] 	2760
scalar geant_cost_network.node[9].content_store 	decision_no[9] 	273155
scalar geant_cost_network.node[9].content_store 	decision_ratio[9] 	0.010003080658899
scalar geant_cost_network.node[10].core_layer 	interests[10] 	179602
scalar geant_cost_network.node[10].core_layer 	data[10] 	120136
scalar geant_cost_network.node[10].content_store 	p_hit[10] 	0.33100410908564
scalar geant_cost_network.node[10].content_store 	hits[10] 	59449
scalar geant_cost_network.node[10].content_store 	misses[10] 	120153
scalar geant_cost_network.node[10].content_store 	decision_yes[10] 	1230
scalar geant_cost_network.node[10].content_store 	decision_no[10] 	118906
scalar geant_cost_network.node[10].content_store 	decision_ratio[10] 	0.010238396483985
scalar geant_cost_network.node[11].core_layer 	interests[11] 	0
scalar geant_cost_network.node[11].core_layer 	data[11] 	0
scalar geant_cost_network.node[11].content_store 	p_hit[11] 	-nan
scalar geant_cost_network.node[11].content_store 	hits[11] 	0
scalar geant_cost_network.node[11].content_store 	misses[11] 	0
scalar geant_cost_network.node[11].content_store 	decision_yes[11] 	0
scalar geant_cost_network.node[11].content_store 	decision_no[11] 	0
scalar geant_cost_network.node[11].content_store 	decision_ratio[11] 	0
scalar geant_cost_network.node[12].core_layer 	interests[12] 	259959
scalar geant_cost_network.node[12].core_layer 	data[12] 	195524
scalar geant_cost_network.node[12].content_store 	p_hit[12] 	0.2477159859824
scalar geant_cost_network.node[12].content_store 	hits[12] 	64396
scalar geant_cost_network.node[12].content_store 	misses[12] 	195563
scalar geant_cost_network.node[12].content_store 	decision_yes[12] 	2015
scalar geant_cost_network.node[12].content_store 	decision_no[12] 	193509
scalar geant_cost_network.node[12].content_store 	decision_ratio[12] 	0.01030564022831
scalar geant_cost_network.node[13].core_layer 	interests[13] 	0
scalar geant_cost_network.node[13].core_layer 	data[13] 	0
scalar geant_cost_network.node[13].content_store 	p_hit[13] 	-nan
scalar geant_cost_network.node[13].content_store 	hits[13] 	0
scalar geant_cost_network.node[13].content_store 	misses[13] 	0
scalar geant_cost_network.node[13].content_store 	decision_yes[13] 	0
scalar geant_cost_network.node[13].content_store 	decision_no[13] 	0
scalar geant_cost_network.node[13].content_store 	decision_ratio[13] 	0
scalar geant_cost_network.node[14].core_layer 	interests[14] 	39453
scalar geant_cost_network.node[14].core_layer 	data[14] 	35203
scalar geant_cost_network.node[14].content_store 	p_hit[14] 	0.10772311357818
scalar geant_cost_network.node[14].content_store 	hits[14] 	4250
scalar geant_cost_network.node[14].content_store 	misses[14] 	35203
scalar geant_cost_network.node[14].content_store 	decision_yes[14] 	368
scalar geant_cost_network.node[14].content_store 	decision_no[14] 	34835
scalar geant_cost_network.node[14].content_store 	decision_ratio[14] 	0.010453654518081
scalar geant_cost_network.node[15].core_layer 	interests[15] 	0
scalar geant_cost_network.node[15].core_layer 	data[15] 	0
scalar geant_cost_network.node[15].content_store 	p_hit[15] 	-nan
scalar geant_cost_network.node[15].content_store 	hits[15] 	0
scalar geant_cost_network.node[15].content_store 	misses[15] 	0
scalar geant_cost_network.node[15].content_store 	decision_yes[15] 	0
scalar geant_cost_network.node[15].content_store 	decision_no[15] 	0
scalar geant_cost_network.node[15].content_store 	decision_ratio[15] 	0
scalar geant_cost_network.node[16].core_layer 	interests[16] 	0
scalar geant_cost_network.node[16].core_layer 	data[16] 	0
scalar geant_cost_network.node[16].content_store 	p_hit[16] 	-nan
scalar geant_cost_network.node[16].content_store 	hits[16] 	0
scalar geant_cost_network.node[16].content_store 	misses[16] 	0
scalar geant_cost_network.node[16].content_store 	decision_yes[16] 	0
scalar geant_cost_network.node[16].content_store 	decision_no[16] 	0
scalar geant_cost_network.node[16].content_store 	decision_ratio[16] 	0
scalar geant_cost_network.node[17].core_layer 	interests[17] 	0
scalar geant_cost_network.node[17].core_layer 	data[17] 	0
scalar geant_cost_network.node[17].content_store 	p_hit[17] 	-nan
scalar geant_cost_network.node[17].content_store 	hits[17] 	0
scalar geant_cost_network.node[17].content_store 	misses[17] 	0
scalar geant_cost_network.node[17].content_store 	decision_yes[17] 	0
scalar geant_cost_network.node[17].content_store 	decision_no[17] 	0
scalar geant_cost_network.node[17].content_store 	decision_ratio[17] 	0
scalar geant_cost_network.node[18].core_layer 	interests[18] 	80737
scalar geant_cost_network.node[18].core_layer 	data[18] 	74653
scalar geant_cost_network.node[18].content_store 	p_hit[18] 	0.075368170727176
scalar geant_cost_network.node[18].content_store 	hits[18] 	6085
scalar geant_cost_network.node[18].content_store 	misses[18] 	74652
scalar geant_cost_network.node[18].content_store 	decision_yes[18] 	776
scalar geant_cost_network.node[18].content_store 	decision_no[18] 	73877
scalar geant_cost_network.node[18].content_store 	decision_ratio[18] 	0.010394759755134
scalar geant_cost_network.node[19].core_layer 	interests[19] 	0
scalar geant_cost_network.node[19].core_layer 	data[19] 	0
scalar geant_cost_network.node[19].content_store 	p_hit[19] 	-nan
scalar geant_cost_network.node[19].content_store 	hits[19] 	0
scalar geant_cost_network.node[19].content_store 	misses[19] 	0
scalar geant_cost_network.node[19].content_store 	decision_yes[19] 	0
scalar geant_cost_network.node[19].content_store 	decision_no[19] 	0
scalar geant_cost_network.node[19].content_store 	decision_ratio[19] 	0
scalar geant_cost_network.node[20].core_layer 	interests[20] 	179609
scalar geant_cost_network.node[20].core_layer 	data[20] 	119840
scalar geant_cost_network.node[20].content_store 	p_hit[20] 	0.33265593594976
scalar geant_cost_network.node[20].content_store 	hits[20] 	59748
scalar geant_cost_network.node[20].content_store 	misses[20] 	119861
scalar geant_cost_network.node[20].content_store 	decision_yes[20] 	1270
scalar geant_cost_network.node[20].content_store 	decision_no[20] 	118570
scalar geant_cost_network.node[20].content_store 	decision_ratio[20] 	0.010597463284379
scalar geant_cost_network.node[21].core_layer 	interests[21] 	174036
scalar geant_cost_network.node[21].core_layer 	data[21] 	162487
scalar geant_cost_network.node[21].content_store 	p_hit[21] 	0.066359833597646
scalar geant_cost_network.node[21].content_store 	hits[21] 	11549
scalar geant_cost_network.node[21].content_store 	misses[21] 	162487
scalar geant_cost_network.node[21].content_store 	decision_yes[21] 	1635
scalar geant_cost_network.node[21].content_store 	decision_no[21] 	160852
scalar geant_cost_network.node[21].content_store 	decision_ratio[21] 	0.010062343449014
scalar geant_cost_network.node[22].core_layer 	interests[22] 	178482
scalar geant_cost_network.node[22].core_layer 	repo_load[22] 	178482
scalar geant_cost_network.node[22].core_layer 	data[22] 	0
scalar geant_cost_network.node[22].content_store 	p_hit[22] 	0
scalar geant_cost_network.node[22].content_store 	hits[22] 	0
scalar geant_cost_network.node[22].content_store 	misses[22] 	178482
scalar geant_cost_network.node[22].content_store 	decision_yes[22] 	0
scalar geant_cost_network.node[22].content_store 	decision_no[22] 	178482
scalar geant_cost_network.node[22].content_store 	decision_ratio[22] 	0
scalar geant_cost_network.node[23].core_layer 	interests[23] 	166804
scalar geant_cost_network.node[23].core_layer 	repo_load[23] 	166804
scalar geant_cost_network.node[23].core_layer 	data[23] 	0
scalar geant_cost_network.node[23].content_store 	p_hit[23] 	0
scalar geant_cost_network.node[23].content_store 	hits[23] 	0
scalar geant_cost_network.node[23].content_store 	misses[23] 	166804
scalar geant_cost_network.node[23].content_store 	decision_yes[23] 	0
scalar geant_cost_network.node[23].content_store 	decision_no[23] 	166804
scalar geant_cost_network.node[23].content_store 	decision_ratio[23] 	0
scalar geant_cost_network.node[24].core_layer 	interests[24] 	162487
scalar geant_cost_network.node[24].core_layer 	repo_load[24] 	162487
scalar geant_cost_network.node[24].core_layer 	data[24] 	0
scalar geant_cost_network.node[24].content_store 	p_hit[24] 	0
scalar geant_cost_network.node[24].content_store 	hits[24] 	0
scalar geant_cost_network.node[24].content_store 	misses[24] 	162487
scalar geant_cost_network.node[24].content_store 	decision_yes[24] 	0
scalar geant_cost_network.node[24].content_store 	decision_no[24] 	162487
scalar geant_cost_network.node[24].content_store 	decision_ratio[24] 	0
scalar geant_cost_network.client[5] 	hdistance[5] 	2.5770616082182
scalar geant_cost_network.client[5] 	downloads[5] 	180187
scalar geant_cost_network.client[5] 	avg_time[5] 	0.006771933483
scalar geant_cost_network.client[5] 	interests_sent[5] 	180216
scalar geant_cost_network.client[9] 	hdistance[9] 	2.6502608666663
scalar geant_cost_network.client[9] 	downloads[9] 	179977
scalar geant_cost_network.client[9] 	avg_time[9] 	0.002691622655
scalar geant_cost_network.client[9] 	interests_sent[9] 	179992
scalar geant_cost_network.client[10] 	hdistance[10] 	3.2106634741209
scalar geant_cost_network.client[10] 	downloads[10] 	179585
scalar geant_cost_network.client[10] 	avg_time[10] 	0.003926873436
scalar geant_cost_network.client[10] 	interests_sent[10] 	179602
scalar geant_cost_network.client[12] 	hdistance[12] 	2.8311732283902
scalar geant_cost_network.client[12] 	downloads[12] 	180161
scalar geant_cost_network.client[12] 	avg_time[12] 	0.003239999655
scalar geant_cost_network.client[12] 	interests_sent[12] 	180179
scalar geant_cost_network.client[20] 	hdistance[20] 	2.8236407777802
scalar geant_cost_network.client[20] 	downloads[20] 	179588
scalar geant_cost_network.client[20] 	avg_time[20] 	0.004616880041
scalar geant_cost_network.client[20] 	interests_sent[20] 	179609
