version 2
run General-79-20140708-20:02:33-17335
attr D costprobtailcons
attr F spr
attr R lru
attr a 1
attr configname General
attr csize 1e3
attr ctlg 1e5
attr datetime 20140708-20:02:33
attr experiment General
attr inifile omnetpp.ini
attr iterationvars "$net=geant_cost, $rep=20, $priceratiovalue=10, $weights=0.333_0.333_0.334, $lambda=100, $a=1, $ctlg=1e5, $F=spr, $ttl=1000, $D=costprobtailcons, $xi=1, $R=lru, $csize=1e3, $pricebits=0, $window=60, $variance=0.05, $mytime=1800"
attr iterationvars2 "$net=geant_cost, $rep=20, $priceratiovalue=10, $weights=0.333_0.333_0.334, $lambda=100, $a=1, $ctlg=1e5, $F=spr, $ttl=1000, $D=costprobtailcons, $xi=1, $R=lru, $csize=1e3, $pricebits=0, $window=60, $variance=0.05, $mytime=1800, $repetition=0"
attr lambda 100
attr measurement "$net=geant_cost, $rep=20, $priceratiovalue=10, $weights=0.333_0.333_0.334, $lambda=100, $a=1, $ctlg=1e5, $F=spr, $ttl=1000, $D=costprobtailcons, $xi=1, $R=lru, $csize=1e3, $pricebits=0, $window=60, $variance=0.05, $mytime=1800"
attr mytime 1800
attr net geant_cost
attr network "networks.${net=abilene_cost, geant_cost}_network"
attr pricebits 0
attr priceratiovalue 10
attr processid 17335
attr rep 20
attr repetition 0
attr replication #0
attr resultdir results
attr runnumber 79
attr seedset 20
attr ttl 1000
attr variance 0.05
attr weights 0.333_0.333_0.334
attr window 60
attr xi 1

scalar . 	a 	1
scalar . 	csize 	1e3
scalar . 	ctlg 	1e5
scalar . 	lambda 	100
scalar . 	mytime 	1800
scalar . 	pricebits 	0
scalar . 	priceratiovalue 	10
scalar . 	rep 	20
scalar . 	ttl 	1000
scalar . 	variance 	0.05
scalar . 	window 	60
scalar . 	xi 	1
scalar geant_cost_network.content_distribution 	repo-0 	22
scalar geant_cost_network.content_distribution 	repo-1 	23
scalar geant_cost_network.content_distribution 	repo-2 	24
scalar geant_cost_network.content_distribution 	client-0 	20
scalar geant_cost_network.content_distribution 	client-1 	10
scalar geant_cost_network.content_distribution 	client-2 	12
scalar geant_cost_network.content_distribution 	client-3 	9
scalar geant_cost_network.content_distribution 	client-4 	5
scalar geant_cost_network.content_distribution 	repo-0_card 	33321
scalar geant_cost_network.content_distribution 	repo-1_card 	33296
scalar geant_cost_network.content_distribution 	repo-2_card 	33383
scalar geant_cost_network.statistics 	repo_popularity[0] 	0.30078651597297
scalar geant_cost_network.statistics 	repo_popularity[1] 	0.29276091736323
scalar geant_cost_network.statistics 	repo_popularity[2] 	0.4064525666638
scalar geant_cost_network.statistics 	stabilization_time 	36060
scalar geant_cost_network.node[7].face$o[4].channel 	price[7] 	0
scalar geant_cost_network.node[7].face$o[4].channel 	represented_price[7] 	0
scalar geant_cost_network.node[8].face$o[3].channel 	price[8] 	0
scalar geant_cost_network.node[8].face$o[3].channel 	represented_price[8] 	0
scalar geant_cost_network.node[21].face$o[5].channel 	price[21] 	0
scalar geant_cost_network.node[21].face$o[5].channel 	represented_price[21] 	0
scalar geant_cost_network.node[22].face$o[1].channel 	price[22] 	0
scalar geant_cost_network.node[22].face$o[1].channel 	represented_price[22] 	0
scalar geant_cost_network.node[23].face$o[1].channel 	price[23] 	1
scalar geant_cost_network.node[23].face$o[1].channel 	represented_price[23] 	1
scalar geant_cost_network.node[24].face$o[1].channel 	price[24] 	10
scalar geant_cost_network.node[24].face$o[1].channel 	represented_price[24] 	10
scalar geant_cost_network.statistics 	p_hit 	0.088224183697962
scalar geant_cost_network.statistics 	interests 	141149.96
scalar geant_cost_network.statistics 	data 	105147.2
scalar geant_cost_network.statistics 	hdistance 	3.6030542980865
scalar geant_cost_network.statistics 	avg_time 	0.005762240338
scalar geant_cost_network.statistics 	downloads 	895343
scalar geant_cost_network.statistics 	total_cost 	1620274
scalar geant_cost_network.statistics 	total_replicas 	100000
scalar geant_cost_network.statistics 	inner_hit 	0.3537515790038
scalar geant_cost_network.statistics 	interests_sent 	900069
scalar geant_cost_network.node[0].core_layer 	interests[0] 	0
scalar geant_cost_network.node[0].core_layer 	data[0] 	0
scalar geant_cost_network.node[0].core_layer 	repo_int[0] 	578614
scalar geant_cost_network.node[0].content_store 	p_hit[0] 	-nan
scalar geant_cost_network.node[0].content_store 	hits[0] 	0
scalar geant_cost_network.node[0].content_store 	misses[0] 	0
scalar geant_cost_network.node[0].content_store 	decision_yes[0] 	0
scalar geant_cost_network.node[0].content_store 	decision_no[0] 	0
scalar geant_cost_network.node[0].content_store 	decision_ratio[0] 	0
scalar geant_cost_network.node[0].content_store 	correction_factor[0] 	8.1586087754308e-317
scalar geant_cost_network.node[0].content_store 	xi[0] 	1
scalar geant_cost_network.node[1].core_layer 	interests[1] 	0
scalar geant_cost_network.node[1].core_layer 	data[1] 	0
scalar geant_cost_network.node[1].content_store 	p_hit[1] 	-nan
scalar geant_cost_network.node[1].content_store 	hits[1] 	0
scalar geant_cost_network.node[1].content_store 	misses[1] 	0
scalar geant_cost_network.node[1].content_store 	decision_yes[1] 	0
scalar geant_cost_network.node[1].content_store 	decision_no[1] 	0
scalar geant_cost_network.node[1].content_store 	decision_ratio[1] 	0
scalar geant_cost_network.node[1].content_store 	correction_factor[1] 	8.1586087754308e-317
scalar geant_cost_network.node[1].content_store 	xi[1] 	1
scalar geant_cost_network.node[2].core_layer 	interests[2] 	0
scalar geant_cost_network.node[2].core_layer 	data[2] 	0
scalar geant_cost_network.node[2].content_store 	p_hit[2] 	-nan
scalar geant_cost_network.node[2].content_store 	hits[2] 	0
scalar geant_cost_network.node[2].content_store 	misses[2] 	0
scalar geant_cost_network.node[2].content_store 	decision_yes[2] 	0
scalar geant_cost_network.node[2].content_store 	decision_no[2] 	0
scalar geant_cost_network.node[2].content_store 	decision_ratio[2] 	0
scalar geant_cost_network.node[2].content_store 	correction_factor[2] 	8.1764820942348e-317
scalar geant_cost_network.node[2].content_store 	xi[2] 	1
scalar geant_cost_network.node[3].core_layer 	interests[3] 	210031
scalar geant_cost_network.node[3].core_layer 	data[3] 	206340
scalar geant_cost_network.node[3].content_store 	p_hit[3] 	0.017573596278645
scalar geant_cost_network.node[3].content_store 	hits[3] 	3691
scalar geant_cost_network.node[3].content_store 	misses[3] 	206340
scalar geant_cost_network.node[3].content_store 	decision_yes[3] 	0
scalar geant_cost_network.node[3].content_store 	decision_no[3] 	206340
scalar geant_cost_network.node[3].content_store 	decision_ratio[3] 	0
scalar geant_cost_network.node[3].content_store 	correction_factor[3] 	8.1784030214658e-317
scalar geant_cost_network.node[3].content_store 	xi[3] 	1
scalar geant_cost_network.node[4].core_layer 	interests[4] 	309866
scalar geant_cost_network.node[4].core_layer 	data[4] 	309722
scalar geant_cost_network.node[4].content_store 	p_hit[4] 	0.00014845126603112
scalar geant_cost_network.node[4].content_store 	hits[4] 	46
scalar geant_cost_network.node[4].content_store 	misses[4] 	309820
scalar geant_cost_network.node[4].content_store 	decision_yes[4] 	0
scalar geant_cost_network.node[4].content_store 	decision_no[4] 	309722
scalar geant_cost_network.node[4].content_store 	decision_ratio[4] 	0
scalar geant_cost_network.node[4].content_store 	correction_factor[4] 	8.1808456820189e-317
scalar geant_cost_network.node[4].content_store 	xi[4] 	1
scalar geant_cost_network.node[5].core_layer 	interests[5] 	179996
scalar geant_cost_network.node[5].core_layer 	data[5] 	150103
scalar geant_cost_network.node[5].content_store 	p_hit[5] 	0.16223138291962
scalar geant_cost_network.node[5].content_store 	hits[5] 	29201
scalar geant_cost_network.node[5].content_store 	misses[5] 	150795
scalar geant_cost_network.node[5].content_store 	decision_yes[5] 	0
scalar geant_cost_network.node[5].content_store 	decision_no[5] 	150103
scalar geant_cost_network.node[5].content_store 	decision_ratio[5] 	0
scalar geant_cost_network.node[5].content_store 	correction_factor[5] 	8.1833990132766e-317
scalar geant_cost_network.node[5].content_store 	xi[5] 	1
scalar geant_cost_network.node[6].core_layer 	interests[6] 	100914
scalar geant_cost_network.node[6].core_layer 	data[6] 	98410
scalar geant_cost_network.node[6].content_store 	p_hit[6] 	0.024813207285411
scalar geant_cost_network.node[6].content_store 	hits[6] 	2504
scalar geant_cost_network.node[6].content_store 	misses[6] 	98410
scalar geant_cost_network.node[6].content_store 	decision_yes[6] 	0
scalar geant_cost_network.node[6].content_store 	decision_no[6] 	98410
scalar geant_cost_network.node[6].content_store 	decision_ratio[6] 	0
scalar geant_cost_network.node[6].content_store 	correction_factor[6] 	8.1855254718163e-317
scalar geant_cost_network.node[6].content_store 	xi[6] 	1
scalar geant_cost_network.node[7].core_layer 	interests[7] 	364352
scalar geant_cost_network.node[7].core_layer 	data[7] 	349121
scalar geant_cost_network.node[7].content_store 	p_hit[7] 	0.041753578956613
scalar geant_cost_network.node[7].content_store 	hits[7] 	15213
scalar geant_cost_network.node[7].content_store 	misses[7] 	349139
scalar geant_cost_network.node[7].content_store 	decision_yes[7] 	0
scalar geant_cost_network.node[7].content_store 	decision_no[7] 	349121
scalar geant_cost_network.node[7].content_store 	decision_ratio[7] 	0
scalar geant_cost_network.node[7].content_store 	correction_factor[7] 	8.188268524282e-317
scalar geant_cost_network.node[7].content_store 	xi[7] 	1
scalar geant_cost_network.node[8].core_layer 	interests[8] 	322387
scalar geant_cost_network.node[8].core_layer 	data[8] 	270928
scalar geant_cost_network.node[8].content_store 	p_hit[8] 	0.15961871911709
scalar geant_cost_network.node[8].content_store 	hits[8] 	51459
scalar geant_cost_network.node[8].content_store 	misses[8] 	270928
scalar geant_cost_network.node[8].content_store 	decision_yes[8] 	0
scalar geant_cost_network.node[8].content_store 	decision_no[8] 	270928
scalar geant_cost_network.node[8].content_store 	decision_ratio[8] 	0
scalar geant_cost_network.node[8].content_store 	correction_factor[8] 	8.190806045439e-317
scalar geant_cost_network.node[8].content_store 	xi[8] 	1
scalar geant_cost_network.node[9].core_layer 	interests[9] 	394066
scalar geant_cost_network.node[9].core_layer 	data[9] 	353242
scalar geant_cost_network.node[9].content_store 	p_hit[9] 	0.095291144123066
scalar geant_cost_network.node[9].content_store 	hits[9] 	37551
scalar geant_cost_network.node[9].content_store 	misses[9] 	356515
scalar geant_cost_network.node[9].content_store 	decision_yes[9] 	0
scalar geant_cost_network.node[9].content_store 	decision_no[9] 	353242
scalar geant_cost_network.node[9].content_store 	decision_ratio[9] 	0
scalar geant_cost_network.node[9].content_store 	correction_factor[9] 	8.1932645160927e-317
scalar geant_cost_network.node[9].content_store 	xi[9] 	1
scalar geant_cost_network.node[10].core_layer 	interests[10] 	179802
scalar geant_cost_network.node[10].core_layer 	data[10] 	164154
scalar geant_cost_network.node[10].content_store 	p_hit[10] 	0.079504121199987
scalar geant_cost_network.node[10].content_store 	hits[10] 	14295
scalar geant_cost_network.node[10].content_store 	misses[10] 	165507
scalar geant_cost_network.node[10].content_store 	decision_yes[10] 	0
scalar geant_cost_network.node[10].content_store 	decision_no[10] 	164154
scalar geant_cost_network.node[10].content_store 	decision_ratio[10] 	0
scalar geant_cost_network.node[10].content_store 	correction_factor[10] 	8.1956676513941e-317
scalar geant_cost_network.node[10].content_store 	xi[10] 	1
scalar geant_cost_network.node[11].core_layer 	interests[11] 	0
scalar geant_cost_network.node[11].core_layer 	data[11] 	0
scalar geant_cost_network.node[11].content_store 	p_hit[11] 	-nan
scalar geant_cost_network.node[11].content_store 	hits[11] 	0
scalar geant_cost_network.node[11].content_store 	misses[11] 	0
scalar geant_cost_network.node[11].content_store 	decision_yes[11] 	0
scalar geant_cost_network.node[11].content_store 	decision_no[11] 	0
scalar geant_cost_network.node[11].content_store 	decision_ratio[11] 	0
scalar geant_cost_network.node[11].content_store 	correction_factor[11] 	8.1981498371988e-317
scalar geant_cost_network.node[11].content_store 	xi[11] 	1
scalar geant_cost_network.node[12].core_layer 	interests[12] 	290213
scalar geant_cost_network.node[12].core_layer 	data[12] 	259754
scalar geant_cost_network.node[12].content_store 	p_hit[12] 	0.090623094072285
scalar geant_cost_network.node[12].content_store 	hits[12] 	26300
scalar geant_cost_network.node[12].content_store 	misses[12] 	263913
scalar geant_cost_network.node[12].content_store 	decision_yes[12] 	0
scalar geant_cost_network.node[12].content_store 	decision_no[12] 	259754
scalar geant_cost_network.node[12].content_store 	decision_ratio[12] 	0
scalar geant_cost_network.node[12].content_store 	correction_factor[12] 	8.1852053172778e-317
scalar geant_cost_network.node[12].content_store 	xi[12] 	1
scalar geant_cost_network.node[13].core_layer 	interests[13] 	0
scalar geant_cost_network.node[13].core_layer 	data[13] 	0
scalar geant_cost_network.node[13].content_store 	p_hit[13] 	-nan
scalar geant_cost_network.node[13].content_store 	hits[13] 	0
scalar geant_cost_network.node[13].content_store 	misses[13] 	0
scalar geant_cost_network.node[13].content_store 	decision_yes[13] 	0
scalar geant_cost_network.node[13].content_store 	decision_no[13] 	0
scalar geant_cost_network.node[13].content_store 	decision_ratio[13] 	0
scalar geant_cost_network.node[13].content_store 	correction_factor[13] 	8.1636482450184e-317
scalar geant_cost_network.node[13].content_store 	xi[13] 	1
scalar geant_cost_network.node[14].core_layer 	interests[14] 	49190
scalar geant_cost_network.node[14].core_layer 	data[14] 	47403
scalar geant_cost_network.node[14].content_store 	p_hit[14] 	0.036328522057329
scalar geant_cost_network.node[14].content_store 	hits[14] 	1787
scalar geant_cost_network.node[14].content_store 	misses[14] 	47403
scalar geant_cost_network.node[14].content_store 	decision_yes[14] 	0
scalar geant_cost_network.node[14].content_store 	decision_no[14] 	47403
scalar geant_cost_network.node[14].content_store 	decision_ratio[14] 	0
scalar geant_cost_network.node[14].content_store 	correction_factor[14] 	8.2055489643109e-317
scalar geant_cost_network.node[14].content_store 	xi[14] 	1
scalar geant_cost_network.node[15].core_layer 	interests[15] 	0
scalar geant_cost_network.node[15].core_layer 	data[15] 	0
scalar geant_cost_network.node[15].content_store 	p_hit[15] 	-nan
scalar geant_cost_network.node[15].content_store 	hits[15] 	0
scalar geant_cost_network.node[15].content_store 	misses[15] 	0
scalar geant_cost_network.node[15].content_store 	decision_yes[15] 	0
scalar geant_cost_network.node[15].content_store 	decision_no[15] 	0
scalar geant_cost_network.node[15].content_store 	decision_ratio[15] 	0
scalar geant_cost_network.node[15].content_store 	correction_factor[15] 	0
scalar geant_cost_network.node[15].content_store 	xi[15] 	1
scalar geant_cost_network.node[16].core_layer 	interests[16] 	0
scalar geant_cost_network.node[16].core_layer 	data[16] 	0
scalar geant_cost_network.node[16].content_store 	p_hit[16] 	-nan
scalar geant_cost_network.node[16].content_store 	hits[16] 	0
scalar geant_cost_network.node[16].content_store 	misses[16] 	0
scalar geant_cost_network.node[16].content_store 	decision_yes[16] 	0
scalar geant_cost_network.node[16].content_store 	decision_no[16] 	0
scalar geant_cost_network.node[16].content_store 	decision_ratio[16] 	0
scalar geant_cost_network.node[16].content_store 	correction_factor[16] 	8.1823832143087e-317
scalar geant_cost_network.node[16].content_store 	xi[16] 	1
scalar geant_cost_network.node[17].core_layer 	interests[17] 	0
scalar geant_cost_network.node[17].core_layer 	data[17] 	0
scalar geant_cost_network.node[17].content_store 	p_hit[17] 	-nan
scalar geant_cost_network.node[17].content_store 	hits[17] 	0
scalar geant_cost_network.node[17].content_store 	misses[17] 	0
scalar geant_cost_network.node[17].content_store 	decision_yes[17] 	0
scalar geant_cost_network.node[17].content_store 	decision_no[17] 	0
scalar geant_cost_network.node[17].content_store 	decision_ratio[17] 	0
scalar geant_cost_network.node[17].content_store 	correction_factor[17] 	0
scalar geant_cost_network.node[17].content_store 	xi[17] 	1
scalar geant_cost_network.node[18].core_layer 	interests[18] 	106068
scalar geant_cost_network.node[18].core_layer 	data[18] 	103527
scalar geant_cost_network.node[18].content_store 	p_hit[18] 	0.023956329901573
scalar geant_cost_network.node[18].content_store 	hits[18] 	2541
scalar geant_cost_network.node[18].content_store 	misses[18] 	103527
scalar geant_cost_network.node[18].content_store 	decision_yes[18] 	0
scalar geant_cost_network.node[18].content_store 	decision_no[18] 	103527
scalar geant_cost_network.node[18].content_store 	decision_ratio[18] 	0
scalar geant_cost_network.node[18].content_store 	correction_factor[18] 	0
scalar geant_cost_network.node[18].content_store 	xi[18] 	1
scalar geant_cost_network.node[19].core_layer 	interests[19] 	0
scalar geant_cost_network.node[19].core_layer 	data[19] 	0
scalar geant_cost_network.node[19].content_store 	p_hit[19] 	-nan
scalar geant_cost_network.node[19].content_store 	hits[19] 	0
scalar geant_cost_network.node[19].content_store 	misses[19] 	0
scalar geant_cost_network.node[19].content_store 	decision_yes[19] 	0
scalar geant_cost_network.node[19].content_store 	decision_no[19] 	0
scalar geant_cost_network.node[19].content_store 	decision_ratio[19] 	0
scalar geant_cost_network.node[19].content_store 	correction_factor[19] 	0
scalar geant_cost_network.node[19].content_store 	xi[19] 	1
scalar geant_cost_network.node[20].core_layer 	interests[20] 	179701
scalar geant_cost_network.node[20].core_layer 	data[20] 	170220
scalar geant_cost_network.node[20].content_store 	p_hit[20] 	0.049749305791287
scalar geant_cost_network.node[20].content_store 	hits[20] 	8940
scalar geant_cost_network.node[20].content_store 	misses[20] 	170761
scalar geant_cost_network.node[20].content_store 	decision_yes[20] 	0
scalar geant_cost_network.node[20].content_store 	decision_no[20] 	170220
scalar geant_cost_network.node[20].content_store 	decision_ratio[20] 	0
scalar geant_cost_network.node[20].content_store 	correction_factor[20] 	8.1554665179233e-317
scalar geant_cost_network.node[20].content_store 	xi[20] 	1
scalar geant_cost_network.node[21].core_layer 	interests[21] 	263549
scalar geant_cost_network.node[21].core_layer 	data[21] 	145756
scalar geant_cost_network.node[21].content_store 	p_hit[21] 	0.44694914418192
scalar geant_cost_network.node[21].content_store 	hits[21] 	117793
scalar geant_cost_network.node[21].content_store 	misses[21] 	145756
scalar geant_cost_network.node[21].content_store 	decision_yes[21] 	0
scalar geant_cost_network.node[21].content_store 	decision_no[21] 	145756
scalar geant_cost_network.node[21].content_store 	decision_ratio[21] 	0
scalar geant_cost_network.node[21].content_store 	correction_factor[21] 	8.2230270305982e-317
scalar geant_cost_network.node[21].content_store 	xi[21] 	1
scalar geant_cost_network.node[22].core_layer 	interests[22] 	270144
scalar geant_cost_network.node[22].core_layer 	repo_load[22] 	270144
scalar geant_cost_network.node[22].core_layer 	data[22] 	0
scalar geant_cost_network.node[22].content_store 	p_hit[22] 	0
scalar geant_cost_network.node[22].content_store 	hits[22] 	0
scalar geant_cost_network.node[22].content_store 	misses[22] 	270144
scalar geant_cost_network.node[22].content_store 	decision_yes[22] 	0
scalar geant_cost_network.node[22].content_store 	decision_no[22] 	270144
scalar geant_cost_network.node[22].content_store 	decision_ratio[22] 	0
scalar geant_cost_network.node[23].core_layer 	interests[23] 	162714
scalar geant_cost_network.node[23].core_layer 	repo_load[23] 	162714
scalar geant_cost_network.node[23].core_layer 	data[23] 	0
scalar geant_cost_network.node[23].content_store 	p_hit[23] 	0
scalar geant_cost_network.node[23].content_store 	hits[23] 	0
scalar geant_cost_network.node[23].content_store 	misses[23] 	162714
scalar geant_cost_network.node[23].content_store 	decision_yes[23] 	0
scalar geant_cost_network.node[23].content_store 	decision_no[23] 	162714
scalar geant_cost_network.node[23].content_store 	decision_ratio[23] 	0
scalar geant_cost_network.node[24].core_layer 	interests[24] 	145756
scalar geant_cost_network.node[24].core_layer 	repo_load[24] 	145756
scalar geant_cost_network.node[24].core_layer 	data[24] 	0
scalar geant_cost_network.node[24].content_store 	p_hit[24] 	0
scalar geant_cost_network.node[24].content_store 	hits[24] 	0
scalar geant_cost_network.node[24].content_store 	misses[24] 	145756
scalar geant_cost_network.node[24].content_store 	decision_yes[24] 	0
scalar geant_cost_network.node[24].content_store 	decision_no[24] 	145756
scalar geant_cost_network.node[24].content_store 	decision_ratio[24] 	0
scalar geant_cost_network.client[5] 	hdistance[5] 	3.1368681122563
scalar geant_cost_network.client[5] 	downloads[5] 	179304
scalar geant_cost_network.client[5] 	avg_time[5] 	0.008605206828
scalar geant_cost_network.client[5] 	interests_sent[5] 	179996
scalar geant_cost_network.client[9] 	hdistance[9] 	3.3849646229708
scalar geant_cost_network.client[9] 	downloads[9] 	179071
scalar geant_cost_network.client[9] 	avg_time[9] 	0.003798526111
scalar geant_cost_network.client[9] 	interests_sent[9] 	180189
scalar geant_cost_network.client[10] 	hdistance[10] 	4.2310295938896
scalar geant_cost_network.client[10] 	downloads[10] 	178449
scalar geant_cost_network.client[10] 	avg_time[10] 	0.005541660976
scalar geant_cost_network.client[10] 	interests_sent[10] 	179802
scalar geant_cost_network.client[12] 	hdistance[12] 	3.6672093399272
scalar geant_cost_network.client[12] 	downloads[12] 	179359
scalar geant_cost_network.client[12] 	avg_time[12] 	0.004518111056
scalar geant_cost_network.client[12] 	interests_sent[12] 	180381
scalar geant_cost_network.client[20] 	hdistance[20] 	3.5951998213887
scalar geant_cost_network.client[20] 	downloads[20] 	179160
scalar geant_cost_network.client[20] 	avg_time[20] 	0.006347696719
scalar geant_cost_network.client[20] 	interests_sent[20] 	179701
