version 2
run General-938-20140502-02:50:38-9839
attr D costprob0.5
attr F nrr
attr R lru
attr a 0.8
attr configname General
attr csize 1e3
attr ctlg 1e5
attr datetime 20140502-02:50:38
attr experiment General
attr inifile omnetpp.ini
attr iterationvars "$net=three_caches_scenario_3_links, $rep=2, $priceratiovalue=5, $weights=0.7_0.15_0.15, $a=0.8, $ctlg=1e5, $F=nrr, $ttl=1000, $D=costprob0.5, $xi=1, $R=lru, $csize=1e3"
attr iterationvars2 "$net=three_caches_scenario_3_links, $rep=2, $priceratiovalue=5, $weights=0.7_0.15_0.15, $a=0.8, $ctlg=1e5, $F=nrr, $ttl=1000, $D=costprob0.5, $xi=1, $R=lru, $csize=1e3, $repetition=0"
attr measurement "$net=three_caches_scenario_3_links, $rep=2, $priceratiovalue=5, $weights=0.7_0.15_0.15, $a=0.8, $ctlg=1e5, $F=nrr, $ttl=1000, $D=costprob0.5, $xi=1, $R=lru, $csize=1e3"
attr net three_caches_scenario_3_links
attr network networks.${net=three_caches_scenario_3_links}_network
attr priceratiovalue 5
attr processid 9839
attr rep 2
attr repetition 0
attr replication #0
attr resultdir results
attr runnumber 938
attr seedset 2
attr ttl 1000
attr weights 0.7_0.15_0.15
attr xi 1

scalar . 	a 	0.8
scalar . 	csize 	1e3
scalar . 	ctlg 	1e5
scalar . 	priceratiovalue 	5
scalar . 	rep 	2
scalar . 	ttl 	1000
scalar . 	xi 	1
scalar three_caches_scenario_3_links_network.content_distribution 	repo-0 	4
scalar three_caches_scenario_3_links_network.content_distribution 	repo-1 	5
scalar three_caches_scenario_3_links_network.content_distribution 	repo-2 	6
scalar three_caches_scenario_3_links_network.content_distribution 	client-0 	0
scalar three_caches_scenario_3_links_network.content_distribution 	repo-0_card 	69917
scalar three_caches_scenario_3_links_network.content_distribution 	repo-1_card 	15037
scalar three_caches_scenario_3_links_network.content_distribution 	repo-2_card 	15046
scalar three_caches_scenario_3_links_network.statistics 	p_hit 	0.030554343927806
scalar three_caches_scenario_3_links_network.statistics 	interests 	73690.714285714
scalar three_caches_scenario_3_links_network.statistics 	data 	48009.285714286
scalar three_caches_scenario_3_links_network.statistics 	hdistance 	2.0879623963954
scalar three_caches_scenario_3_links_network.statistics 	avg_time 	0
scalar three_caches_scenario_3_links_network.statistics 	downloads 	179770
scalar three_caches_scenario_3_links_network.statistics 	total_cost 	117960
scalar three_caches_scenario_3_links_network.statistics 	total_replicas 	100000
scalar three_caches_scenario_3_links_network.statistics 	interests_sent 	179770
scalar three_caches_scenario_3_links_network.node[0].core_layer 	interests[0] 	179770
scalar three_caches_scenario_3_links_network.node[0].core_layer 	data[0] 	172056
scalar three_caches_scenario_3_links_network.node[0].core_layer 	repo_int[0] 	164009
scalar three_caches_scenario_3_links_network.node[0].content_store 	p_hit[0] 	0.042910385492574
scalar three_caches_scenario_3_links_network.node[0].content_store 	hits[0] 	7714
scalar three_caches_scenario_3_links_network.node[0].content_store 	misses[0] 	172056
scalar three_caches_scenario_3_links_network.node[0].content_store 	decision_yes[0] 	30599
scalar three_caches_scenario_3_links_network.node[0].content_store 	decision_no[0] 	141457
scalar three_caches_scenario_3_links_network.node[1].core_layer 	interests[1] 	124721
scalar three_caches_scenario_3_links_network.node[1].core_layer 	data[1] 	124721
scalar three_caches_scenario_3_links_network.node[1].content_store 	p_hit[1] 	0
scalar three_caches_scenario_3_links_network.node[1].content_store 	hits[1] 	0
scalar three_caches_scenario_3_links_network.node[1].content_store 	misses[1] 	124721
scalar three_caches_scenario_3_links_network.node[1].content_store 	decision_yes[1] 	0
scalar three_caches_scenario_3_links_network.node[1].content_store 	decision_no[1] 	124721
scalar three_caches_scenario_3_links_network.node[2].core_layer 	interests[2] 	26230
scalar three_caches_scenario_3_links_network.node[2].core_layer 	data[2] 	19620
scalar three_caches_scenario_3_links_network.node[2].content_store 	p_hit[2] 	0.25200152497141
scalar three_caches_scenario_3_links_network.node[2].content_store 	hits[2] 	6610
scalar three_caches_scenario_3_links_network.node[2].content_store 	misses[2] 	19620
scalar three_caches_scenario_3_links_network.node[2].content_store 	decision_yes[2] 	10838
scalar three_caches_scenario_3_links_network.node[2].content_store 	decision_no[2] 	8782
scalar three_caches_scenario_3_links_network.node[3].core_layer 	interests[3] 	21105
scalar three_caches_scenario_3_links_network.node[3].core_layer 	data[3] 	19668
scalar three_caches_scenario_3_links_network.node[3].content_store 	p_hit[3] 	0.068088130774698
scalar three_caches_scenario_3_links_network.node[3].content_store 	hits[3] 	1437
scalar three_caches_scenario_3_links_network.node[3].content_store 	misses[3] 	19668
scalar three_caches_scenario_3_links_network.node[3].content_store 	decision_yes[3] 	19668
scalar three_caches_scenario_3_links_network.node[3].content_store 	decision_no[3] 	0
scalar three_caches_scenario_3_links_network.node[4].core_layer 	interests[4] 	124721
scalar three_caches_scenario_3_links_network.node[4].core_layer 	repo_load[4] 	124721
scalar three_caches_scenario_3_links_network.node[4].core_layer 	data[4] 	0
scalar three_caches_scenario_3_links_network.node[4].content_store 	p_hit[4] 	0
scalar three_caches_scenario_3_links_network.node[4].content_store 	hits[4] 	0
scalar three_caches_scenario_3_links_network.node[4].content_store 	misses[4] 	124721
scalar three_caches_scenario_3_links_network.node[4].content_store 	decision_yes[4] 	0
scalar three_caches_scenario_3_links_network.node[4].content_store 	decision_no[4] 	124721
scalar three_caches_scenario_3_links_network.node[5].core_layer 	interests[5] 	19620
scalar three_caches_scenario_3_links_network.node[5].core_layer 	repo_load[5] 	19620
scalar three_caches_scenario_3_links_network.node[5].core_layer 	data[5] 	0
scalar three_caches_scenario_3_links_network.node[5].content_store 	p_hit[5] 	0
scalar three_caches_scenario_3_links_network.node[5].content_store 	hits[5] 	0
scalar three_caches_scenario_3_links_network.node[5].content_store 	misses[5] 	19620
scalar three_caches_scenario_3_links_network.node[5].content_store 	decision_yes[5] 	0
scalar three_caches_scenario_3_links_network.node[5].content_store 	decision_no[5] 	19620
scalar three_caches_scenario_3_links_network.node[6].core_layer 	interests[6] 	19668
scalar three_caches_scenario_3_links_network.node[6].core_layer 	repo_load[6] 	19668
scalar three_caches_scenario_3_links_network.node[6].core_layer 	data[6] 	0
scalar three_caches_scenario_3_links_network.node[6].content_store 	p_hit[6] 	0
scalar three_caches_scenario_3_links_network.node[6].content_store 	hits[6] 	0
scalar three_caches_scenario_3_links_network.node[6].content_store 	misses[6] 	19668
scalar three_caches_scenario_3_links_network.node[6].content_store 	decision_yes[6] 	0
scalar three_caches_scenario_3_links_network.node[6].content_store 	decision_no[6] 	19668
scalar three_caches_scenario_3_links_network.client[0] 	hdistance[0] 	2.0879623963954
scalar three_caches_scenario_3_links_network.client[0] 	downloads[0] 	179770
scalar three_caches_scenario_3_links_network.client[0] 	avg_time[0] 	0
scalar three_caches_scenario_3_links_network.client[0] 	interests_sent[0] 	179770
