version 2
run General-583-20140502-11:17:34-14468
attr D fix0.05
attr F nrr
attr R lru
attr a 0.8
attr configname General
attr csize 1e3
attr ctlg 1e5
attr datetime 20140502-11:17:34
attr experiment General
attr inifile omnetpp.ini
attr iterationvars "$net=three_caches_scenario_3_links, $rep=5, $priceratiovalue=1, $weights=0.333_0.333_0.334, $a=0.8, $ctlg=1e5, $F=nrr, $ttl=1000, $D=fix0.05, $xi=1, $R=lru, $csize=1e3"
attr iterationvars2 "$net=three_caches_scenario_3_links, $rep=5, $priceratiovalue=1, $weights=0.333_0.333_0.334, $a=0.8, $ctlg=1e5, $F=nrr, $ttl=1000, $D=fix0.05, $xi=1, $R=lru, $csize=1e3, $repetition=0"
attr measurement "$net=three_caches_scenario_3_links, $rep=5, $priceratiovalue=1, $weights=0.333_0.333_0.334, $a=0.8, $ctlg=1e5, $F=nrr, $ttl=1000, $D=fix0.05, $xi=1, $R=lru, $csize=1e3"
attr net three_caches_scenario_3_links
attr network networks.${net=three_caches_scenario_3_links}_network
attr priceratiovalue 1
attr processid 14468
attr rep 5
attr repetition 0
attr replication #0
attr resultdir results
attr runnumber 583
attr seedset 5
attr ttl 1000
attr weights 0.333_0.333_0.334
attr xi 1

scalar . 	a 	0.8
scalar . 	csize 	1e3
scalar . 	ctlg 	1e5
scalar . 	priceratiovalue 	1
scalar . 	rep 	5
scalar . 	ttl 	1000
scalar . 	xi 	1
scalar three_caches_scenario_3_links_network.content_distribution 	repo-0 	4
scalar three_caches_scenario_3_links_network.content_distribution 	repo-1 	5
scalar three_caches_scenario_3_links_network.content_distribution 	repo-2 	6
scalar three_caches_scenario_3_links_network.content_distribution 	client-0 	0
scalar three_caches_scenario_3_links_network.content_distribution 	repo-0_card 	33274
scalar three_caches_scenario_3_links_network.content_distribution 	repo-1_card 	33323
scalar three_caches_scenario_3_links_network.content_distribution 	repo-2_card 	33403
scalar three_caches_scenario_3_links_network.statistics 	p_hit 	0.094166049499664
scalar three_caches_scenario_3_links_network.statistics 	interests 	66355.428571429
scalar three_caches_scenario_3_links_network.statistics 	data 	40540.857142857
scalar three_caches_scenario_3_links_network.statistics 	hdistance 	2.0591526380449
scalar three_caches_scenario_3_links_network.statistics 	avg_time 	0
scalar three_caches_scenario_3_links_network.statistics 	downloads 	180702
scalar three_caches_scenario_3_links_network.statistics 	total_cost 	88307
scalar three_caches_scenario_3_links_network.statistics 	total_replicas 	100000
scalar three_caches_scenario_3_links_network.statistics 	interests_sent 	180702
scalar three_caches_scenario_3_links_network.node[0].core_layer 	interests[0] 	180702
scalar three_caches_scenario_3_links_network.node[0].core_layer 	data[0] 	146823
scalar three_caches_scenario_3_links_network.node[0].core_layer 	repo_int[0] 	136963
scalar three_caches_scenario_3_links_network.node[0].content_store 	p_hit[0] 	0.18748547332072
scalar three_caches_scenario_3_links_network.node[0].content_store 	hits[0] 	33879
scalar three_caches_scenario_3_links_network.node[0].content_store 	misses[0] 	146823
scalar three_caches_scenario_3_links_network.node[0].content_store 	decision_yes[0] 	7448
scalar three_caches_scenario_3_links_network.node[0].content_store 	decision_no[0] 	139375
scalar three_caches_scenario_3_links_network.node[1].core_layer 	interests[1] 	48656
scalar three_caches_scenario_3_links_network.node[1].core_layer 	data[1] 	48656
scalar three_caches_scenario_3_links_network.node[1].content_store 	p_hit[1] 	0
scalar three_caches_scenario_3_links_network.node[1].content_store 	hits[1] 	0
scalar three_caches_scenario_3_links_network.node[1].content_store 	misses[1] 	48656
scalar three_caches_scenario_3_links_network.node[1].content_store 	decision_yes[1] 	0
scalar three_caches_scenario_3_links_network.node[1].content_store 	decision_no[1] 	48656
scalar three_caches_scenario_3_links_network.node[2].core_layer 	interests[2] 	49397
scalar three_caches_scenario_3_links_network.node[2].core_layer 	data[2] 	44371
scalar three_caches_scenario_3_links_network.node[2].content_store 	p_hit[2] 	0.1017470696601
scalar three_caches_scenario_3_links_network.node[2].content_store 	hits[2] 	5026
scalar three_caches_scenario_3_links_network.node[2].content_store 	misses[2] 	44371
scalar three_caches_scenario_3_links_network.node[2].content_store 	decision_yes[2] 	2257
scalar three_caches_scenario_3_links_network.node[2].content_store 	decision_no[2] 	42114
scalar three_caches_scenario_3_links_network.node[3].core_layer 	interests[3] 	48770
scalar three_caches_scenario_3_links_network.node[3].core_layer 	data[3] 	43936
scalar three_caches_scenario_3_links_network.node[3].content_store 	p_hit[3] 	0.099118310436744
scalar three_caches_scenario_3_links_network.node[3].content_store 	hits[3] 	4834
scalar three_caches_scenario_3_links_network.node[3].content_store 	misses[3] 	43936
scalar three_caches_scenario_3_links_network.node[3].content_store 	decision_yes[3] 	2159
scalar three_caches_scenario_3_links_network.node[3].content_store 	decision_no[3] 	41777
scalar three_caches_scenario_3_links_network.node[4].core_layer 	interests[4] 	48656
scalar three_caches_scenario_3_links_network.node[4].core_layer 	repo_load[4] 	48656
scalar three_caches_scenario_3_links_network.node[4].core_layer 	data[4] 	0
scalar three_caches_scenario_3_links_network.node[4].content_store 	p_hit[4] 	0
scalar three_caches_scenario_3_links_network.node[4].content_store 	hits[4] 	0
scalar three_caches_scenario_3_links_network.node[4].content_store 	misses[4] 	48656
scalar three_caches_scenario_3_links_network.node[4].content_store 	decision_yes[4] 	0
scalar three_caches_scenario_3_links_network.node[4].content_store 	decision_no[4] 	48656
scalar three_caches_scenario_3_links_network.node[5].core_layer 	interests[5] 	44371
scalar three_caches_scenario_3_links_network.node[5].core_layer 	repo_load[5] 	44371
scalar three_caches_scenario_3_links_network.node[5].core_layer 	data[5] 	0
scalar three_caches_scenario_3_links_network.node[5].content_store 	p_hit[5] 	0
scalar three_caches_scenario_3_links_network.node[5].content_store 	hits[5] 	0
scalar three_caches_scenario_3_links_network.node[5].content_store 	misses[5] 	44371
scalar three_caches_scenario_3_links_network.node[5].content_store 	decision_yes[5] 	0
scalar three_caches_scenario_3_links_network.node[5].content_store 	decision_no[5] 	44371
scalar three_caches_scenario_3_links_network.node[6].core_layer 	interests[6] 	43936
scalar three_caches_scenario_3_links_network.node[6].core_layer 	repo_load[6] 	43936
scalar three_caches_scenario_3_links_network.node[6].core_layer 	data[6] 	0
scalar three_caches_scenario_3_links_network.node[6].content_store 	p_hit[6] 	0
scalar three_caches_scenario_3_links_network.node[6].content_store 	hits[6] 	0
scalar three_caches_scenario_3_links_network.node[6].content_store 	misses[6] 	43936
scalar three_caches_scenario_3_links_network.node[6].content_store 	decision_yes[6] 	0
scalar three_caches_scenario_3_links_network.node[6].content_store 	decision_no[6] 	43936
scalar three_caches_scenario_3_links_network.client[0] 	hdistance[0] 	2.0591526380449
scalar three_caches_scenario_3_links_network.client[0] 	downloads[0] 	180702
scalar three_caches_scenario_3_links_network.client[0] 	avg_time[0] 	0
scalar three_caches_scenario_3_links_network.client[0] 	interests_sent[0] 	180702
