version 2
run General-4-20140618-15:33:44-16761
attr D fix0.001
attr F spr
attr R lru
attr a 1
attr configname General
attr csize 1e3
attr ctlg 1e5
attr datetime 20140618-15:33:44
attr experiment General
attr inifile omnetpp.ini
attr iterationvars "$net=abilene_cost, $rep=1, $priceratiovalue=10, $weights=0.333_0.333_0.334, $lambda=100, $a=1, $ctlg=1e5, $F=spr, $ttl=1000, $D=fix0.001, $xi=1, $R=lru, $csize=1e3, $pricebits=0, $mytime=1800"
attr iterationvars2 "$net=abilene_cost, $rep=1, $priceratiovalue=10, $weights=0.333_0.333_0.334, $lambda=100, $a=1, $ctlg=1e5, $F=spr, $ttl=1000, $D=fix0.001, $xi=1, $R=lru, $csize=1e3, $pricebits=0, $mytime=1800, $repetition=0"
attr lambda 100
attr measurement "$net=abilene_cost, $rep=1, $priceratiovalue=10, $weights=0.333_0.333_0.334, $lambda=100, $a=1, $ctlg=1e5, $F=spr, $ttl=1000, $D=fix0.001, $xi=1, $R=lru, $csize=1e3, $pricebits=0, $mytime=1800"
attr mytime 1800
attr net abilene_cost
attr network networks.${net=abilene_cost}_network
attr pricebits 0
attr priceratiovalue 10
attr processid 16761
attr rep 1
attr repetition 0
attr replication #0
attr resultdir results
attr runnumber 4
attr seedset 1
attr ttl 1000
attr weights 0.333_0.333_0.334
attr xi 1

scalar . 	a 	1
scalar . 	csize 	1e3
scalar . 	ctlg 	1e5
scalar . 	lambda 	100
scalar . 	mytime 	1800
scalar . 	pricebits 	0
scalar . 	priceratiovalue 	10
scalar . 	rep 	1
scalar . 	ttl 	1000
scalar . 	xi 	1
scalar abilene_cost_network.content_distribution 	repo-0 	11
scalar abilene_cost_network.content_distribution 	repo-1 	12
scalar abilene_cost_network.content_distribution 	repo-2 	13
scalar abilene_cost_network.content_distribution 	client-0 	3
scalar abilene_cost_network.content_distribution 	client-1 	7
scalar abilene_cost_network.content_distribution 	client-2 	10
scalar abilene_cost_network.content_distribution 	repo-0_card 	33396
scalar abilene_cost_network.content_distribution 	repo-1_card 	33039
scalar abilene_cost_network.content_distribution 	repo-2_card 	33565
scalar abilene_cost_network.statistics 	repo_popularity[0] 	0.28686251265602
scalar abilene_cost_network.statistics 	repo_popularity[1] 	0.2886063426465
scalar abilene_cost_network.statistics 	repo_popularity[2] 	0.42453114469748
scalar abilene_cost_network.statistics 	stabilization_time 	4278.2
scalar abilene_cost_network.node[0].face$o[3].channel 	price[0] 	0
scalar abilene_cost_network.node[0].face$o[3].channel 	represented_price[0] 	0
scalar abilene_cost_network.node[5].face$o[3].channel 	price[5] 	0
scalar abilene_cost_network.node[5].face$o[3].channel 	represented_price[5] 	0
scalar abilene_cost_network.node[9].face$o[3].channel 	price[9] 	0
scalar abilene_cost_network.node[9].face$o[3].channel 	represented_price[9] 	0
scalar abilene_cost_network.node[11].face$o[1].channel 	price[11] 	0
scalar abilene_cost_network.node[11].face$o[1].channel 	represented_price[11] 	0
scalar abilene_cost_network.node[12].face$o[1].channel 	price[12] 	1
scalar abilene_cost_network.node[12].face$o[1].channel 	represented_price[12] 	1
scalar abilene_cost_network.node[13].face$o[1].channel 	price[13] 	10
scalar abilene_cost_network.node[13].face$o[1].channel 	represented_price[13] 	10
scalar abilene_cost_network.statistics 	p_hit 	0.17532400220468
scalar abilene_cost_network.statistics 	inner_hit 	inf
scalar abilene_cost_network.statistics 	interests 	113006.28571429
scalar abilene_cost_network.statistics 	data 	74383
scalar abilene_cost_network.statistics 	hdistance 	2.4130547147836
scalar abilene_cost_network.statistics 	avg_time 	0
scalar abilene_cost_network.statistics 	downloads 	540726
scalar abilene_cost_network.statistics 	total_cost 	994236
scalar abilene_cost_network.statistics 	total_replicas 	100000
scalar abilene_cost_network.statistics 	interests_sent 	540726
scalar abilene_cost_network.node[0].core_layer 	interests[0] 	98319
scalar abilene_cost_network.node[0].core_layer 	data[0] 	89219
scalar abilene_cost_network.node[0].core_layer 	repo_int[0] 	263348
scalar abilene_cost_network.node[0].content_store 	p_hit[0] 	0.092555864075102
scalar abilene_cost_network.node[0].content_store 	hits[0] 	9100
scalar abilene_cost_network.node[0].content_store 	misses[0] 	89219
scalar abilene_cost_network.node[0].content_store 	decision_yes[0] 	92
scalar abilene_cost_network.node[0].content_store 	decision_no[0] 	89127
scalar abilene_cost_network.node[0].content_store 	decision_ratio[0] 	0.0010311704905906
scalar abilene_cost_network.node[1].core_layer 	interests[1] 	72249
scalar abilene_cost_network.node[1].core_layer 	data[1] 	65835
scalar abilene_cost_network.node[1].content_store 	p_hit[1] 	0.088776315243118
scalar abilene_cost_network.node[1].content_store 	hits[1] 	6414
scalar abilene_cost_network.node[1].content_store 	misses[1] 	65835
scalar abilene_cost_network.node[1].content_store 	decision_yes[1] 	57
scalar abilene_cost_network.node[1].content_store 	decision_no[1] 	65778
scalar abilene_cost_network.node[1].content_store 	decision_ratio[1] 	0.00086580086580087
scalar abilene_cost_network.node[2].core_layer 	interests[2] 	70520
scalar abilene_cost_network.node[2].core_layer 	data[2] 	64764
scalar abilene_cost_network.node[2].content_store 	p_hit[2] 	0.081622234826999
scalar abilene_cost_network.node[2].content_store 	hits[2] 	5756
scalar abilene_cost_network.node[2].content_store 	misses[2] 	64764
scalar abilene_cost_network.node[2].content_store 	decision_yes[2] 	63
scalar abilene_cost_network.node[2].content_store 	decision_no[2] 	64701
scalar abilene_cost_network.node[2].content_store 	decision_ratio[2] 	0.0009727626459144
scalar abilene_cost_network.node[3].core_layer 	interests[3] 	211667
scalar abilene_cost_network.node[3].core_layer 	data[3] 	138903
scalar abilene_cost_network.node[3].content_store 	p_hit[3] 	0.34376638776947
scalar abilene_cost_network.node[3].content_store 	hits[3] 	72764
scalar abilene_cost_network.node[3].content_store 	misses[3] 	138903
scalar abilene_cost_network.node[3].content_store 	decision_yes[3] 	140
scalar abilene_cost_network.node[3].content_store 	decision_no[3] 	138763
scalar abilene_cost_network.node[3].content_store 	decision_ratio[3] 	0.0010078975976041
scalar abilene_cost_network.node[4].core_layer 	interests[4] 	64175
scalar abilene_cost_network.node[4].core_layer 	data[4] 	58723
scalar abilene_cost_network.node[4].content_store 	p_hit[4] 	0.084955200623296
scalar abilene_cost_network.node[4].content_store 	hits[4] 	5452
scalar abilene_cost_network.node[4].content_store 	misses[4] 	58723
scalar abilene_cost_network.node[4].content_store 	decision_yes[4] 	67
scalar abilene_cost_network.node[4].content_store 	decision_no[4] 	58656
scalar abilene_cost_network.node[4].content_store 	decision_ratio[4] 	0.0011409498833506
scalar abilene_cost_network.node[5].core_layer 	interests[5] 	91694
scalar abilene_cost_network.node[5].core_layer 	data[5] 	83006
scalar abilene_cost_network.node[5].content_store 	p_hit[5] 	0.094749929112047
scalar abilene_cost_network.node[5].content_store 	hits[5] 	8688
scalar abilene_cost_network.node[5].content_store 	misses[5] 	83006
scalar abilene_cost_network.node[5].content_store 	decision_yes[5] 	95
scalar abilene_cost_network.node[5].content_store 	decision_no[5] 	82911
scalar abilene_cost_network.node[5].content_store 	decision_ratio[5] 	0.0011444955786329
scalar abilene_cost_network.node[6].core_layer 	interests[6] 	37676
scalar abilene_cost_network.node[6].core_layer 	data[6] 	32971
scalar abilene_cost_network.node[6].content_store 	p_hit[6] 	0.12488056056906
scalar abilene_cost_network.node[6].content_store 	hits[6] 	4705
scalar abilene_cost_network.node[6].content_store 	misses[6] 	32971
scalar abilene_cost_network.node[6].content_store 	decision_yes[6] 	37
scalar abilene_cost_network.node[6].content_store 	decision_no[6] 	32934
scalar abilene_cost_network.node[6].content_store 	decision_ratio[6] 	0.0011221982954718
scalar abilene_cost_network.node[7].core_layer 	interests[7] 	217382
scalar abilene_cost_network.node[7].core_layer 	data[7] 	143799
scalar abilene_cost_network.node[7].content_store 	p_hit[7] 	0.33849628764111
scalar abilene_cost_network.node[7].content_store 	hits[7] 	73583
scalar abilene_cost_network.node[7].content_store 	misses[7] 	143799
scalar abilene_cost_network.node[7].content_store 	decision_yes[7] 	144
scalar abilene_cost_network.node[7].content_store 	decision_no[7] 	143655
scalar abilene_cost_network.node[7].content_store 	decision_ratio[7] 	0.0010013977844074
scalar abilene_cost_network.node[8].core_layer 	interests[8] 	106123
scalar abilene_cost_network.node[8].core_layer 	data[8] 	97469
scalar abilene_cost_network.node[8].content_store 	p_hit[8] 	0.081546884275793
scalar abilene_cost_network.node[8].content_store 	hits[8] 	8654
scalar abilene_cost_network.node[8].content_store 	misses[8] 	97469
scalar abilene_cost_network.node[8].content_store 	decision_yes[8] 	93
scalar abilene_cost_network.node[8].content_store 	decision_no[8] 	97376
scalar abilene_cost_network.node[8].content_store 	decision_ratio[8] 	0.00095414952446419
scalar abilene_cost_network.node[9].core_layer 	interests[9] 	135518
scalar abilene_cost_network.node[9].core_layer 	data[9] 	123876
scalar abilene_cost_network.node[9].content_store 	p_hit[9] 	0.085907407134108
scalar abilene_cost_network.node[9].content_store 	hits[9] 	11642
scalar abilene_cost_network.node[9].content_store 	misses[9] 	123876
scalar abilene_cost_network.node[9].content_store 	decision_yes[9] 	121
scalar abilene_cost_network.node[9].content_store 	decision_no[9] 	123755
scalar abilene_cost_network.node[9].content_store 	decision_ratio[9] 	0.00097678323484775
scalar abilene_cost_network.node[10].core_layer 	interests[10] 	213417
scalar abilene_cost_network.node[10].core_layer 	data[10] 	142797
scalar abilene_cost_network.node[10].content_store 	p_hit[10] 	0.33090147457794
scalar abilene_cost_network.node[10].content_store 	hits[10] 	70620
scalar abilene_cost_network.node[10].content_store 	misses[10] 	142797
scalar abilene_cost_network.node[10].content_store 	decision_yes[10] 	149
scalar abilene_cost_network.node[10].content_store 	decision_no[10] 	142648
scalar abilene_cost_network.node[10].content_store 	decision_ratio[10] 	0.0010434392879402
scalar abilene_cost_network.node[11].core_layer 	interests[11] 	89219
scalar abilene_cost_network.node[11].core_layer 	repo_load[11] 	89219
scalar abilene_cost_network.node[11].core_layer 	data[11] 	0
scalar abilene_cost_network.node[11].content_store 	p_hit[11] 	0
scalar abilene_cost_network.node[11].content_store 	hits[11] 	0
scalar abilene_cost_network.node[11].content_store 	misses[11] 	89219
scalar abilene_cost_network.node[11].content_store 	decision_yes[11] 	0
scalar abilene_cost_network.node[11].content_store 	decision_no[11] 	89219
scalar abilene_cost_network.node[11].content_store 	decision_ratio[11] 	0
scalar abilene_cost_network.node[12].core_layer 	interests[12] 	83006
scalar abilene_cost_network.node[12].core_layer 	repo_load[12] 	83006
scalar abilene_cost_network.node[12].core_layer 	data[12] 	0
scalar abilene_cost_network.node[12].content_store 	p_hit[12] 	0
scalar abilene_cost_network.node[12].content_store 	hits[12] 	0
scalar abilene_cost_network.node[12].content_store 	misses[12] 	83006
scalar abilene_cost_network.node[12].content_store 	decision_yes[12] 	0
scalar abilene_cost_network.node[12].content_store 	decision_no[12] 	83006
scalar abilene_cost_network.node[12].content_store 	decision_ratio[12] 	0
scalar abilene_cost_network.node[13].core_layer 	interests[13] 	91123
scalar abilene_cost_network.node[13].core_layer 	repo_load[13] 	91123
scalar abilene_cost_network.node[13].core_layer 	data[13] 	0
scalar abilene_cost_network.node[13].content_store 	p_hit[13] 	0
scalar abilene_cost_network.node[13].content_store 	hits[13] 	0
scalar abilene_cost_network.node[13].content_store 	misses[13] 	91123
scalar abilene_cost_network.node[13].content_store 	decision_yes[13] 	0
scalar abilene_cost_network.node[13].content_store 	decision_no[13] 	91123
scalar abilene_cost_network.node[13].content_store 	decision_ratio[13] 	0
scalar abilene_cost_network.client[3] 	hdistance[3] 	2.4620688126275
scalar abilene_cost_network.client[3] 	downloads[3] 	180432
scalar abilene_cost_network.client[3] 	avg_time[3] 	0
scalar abilene_cost_network.client[3] 	interests_sent[3] 	180432
scalar abilene_cost_network.client[7] 	hdistance[7] 	2.4904748650003
scalar abilene_cost_network.client[7] 	downloads[7] 	179630
scalar abilene_cost_network.client[7] 	avg_time[7] 	0
scalar abilene_cost_network.client[7] 	interests_sent[7] 	179630
scalar abilene_cost_network.client[10] 	hdistance[10] 	2.2866204667228
scalar abilene_cost_network.client[10] 	downloads[10] 	180664
scalar abilene_cost_network.client[10] 	avg_time[10] 	0
scalar abilene_cost_network.client[10] 	interests_sent[10] 	180664
