version 2
run General-2784-20140502-06:27:22-11750
attr D costprob0.1
attr F nrr
attr R lru
attr a 1
attr configname General
attr csize 1e3
attr ctlg 1e5
attr datetime 20140502-06:27:22
attr experiment General
attr inifile omnetpp.ini
attr iterationvars "$net=three_caches_scenario_3_links, $rep=5, $priceratiovalue=10, $weights=0.2_0.4_0.4, $a=1, $ctlg=1e5, $F=nrr, $ttl=1000, $D=costprob0.1, $xi=1, $R=lru, $csize=1e3"
attr iterationvars2 "$net=three_caches_scenario_3_links, $rep=5, $priceratiovalue=10, $weights=0.2_0.4_0.4, $a=1, $ctlg=1e5, $F=nrr, $ttl=1000, $D=costprob0.1, $xi=1, $R=lru, $csize=1e3, $repetition=0"
attr measurement "$net=three_caches_scenario_3_links, $rep=5, $priceratiovalue=10, $weights=0.2_0.4_0.4, $a=1, $ctlg=1e5, $F=nrr, $ttl=1000, $D=costprob0.1, $xi=1, $R=lru, $csize=1e3"
attr net three_caches_scenario_3_links
attr network networks.${net=three_caches_scenario_3_links}_network
attr priceratiovalue 10
attr processid 11750
attr rep 5
attr repetition 0
attr replication #0
attr resultdir results
attr runnumber 2784
attr seedset 5
attr ttl 1000
attr weights 0.2_0.4_0.4
attr xi 1

scalar . 	a 	1
scalar . 	csize 	1e3
scalar . 	ctlg 	1e5
scalar . 	priceratiovalue 	10
scalar . 	rep 	5
scalar . 	ttl 	1000
scalar . 	xi 	1
scalar three_caches_scenario_3_links_network.content_distribution 	repo-0 	4
scalar three_caches_scenario_3_links_network.content_distribution 	repo-1 	5
scalar three_caches_scenario_3_links_network.content_distribution 	repo-2 	6
scalar three_caches_scenario_3_links_network.content_distribution 	client-0 	0
scalar three_caches_scenario_3_links_network.content_distribution 	repo-0_card 	19937
scalar three_caches_scenario_3_links_network.content_distribution 	repo-1_card 	40032
scalar three_caches_scenario_3_links_network.content_distribution 	repo-2_card 	40031
scalar three_caches_scenario_3_links_network.statistics 	p_hit 	0.12199783549784
scalar three_caches_scenario_3_links_network.statistics 	interests 	66000
scalar three_caches_scenario_3_links_network.statistics 	data 	40207.857142857
scalar three_caches_scenario_3_links_network.statistics 	hdistance 	1.9185023124429
scalar three_caches_scenario_3_links_network.statistics 	avg_time 	0
scalar three_caches_scenario_3_links_network.statistics 	downloads 	180545
scalar three_caches_scenario_3_links_network.statistics 	total_cost 	353785
scalar three_caches_scenario_3_links_network.statistics 	total_replicas 	100000
scalar three_caches_scenario_3_links_network.statistics 	interests_sent 	180545
scalar three_caches_scenario_3_links_network.node[0].core_layer 	interests[0] 	180545
scalar three_caches_scenario_3_links_network.node[0].core_layer 	data[0] 	157273
scalar three_caches_scenario_3_links_network.node[0].core_layer 	repo_int[0] 	124182
scalar three_caches_scenario_3_links_network.node[0].content_store 	p_hit[0] 	0.12889861253427
scalar three_caches_scenario_3_links_network.node[0].content_store 	hits[0] 	23272
scalar three_caches_scenario_3_links_network.node[0].content_store 	misses[0] 	157273
scalar three_caches_scenario_3_links_network.node[0].content_store 	decision_yes[0] 	7967
scalar three_caches_scenario_3_links_network.node[0].content_store 	decision_no[0] 	149306
scalar three_caches_scenario_3_links_network.node[1].core_layer 	interests[1] 	59261
scalar three_caches_scenario_3_links_network.node[1].core_layer 	data[1] 	59261
scalar three_caches_scenario_3_links_network.node[1].content_store 	p_hit[1] 	0
scalar three_caches_scenario_3_links_network.node[1].content_store 	hits[1] 	0
scalar three_caches_scenario_3_links_network.node[1].content_store 	misses[1] 	59261
scalar three_caches_scenario_3_links_network.node[1].content_store 	decision_yes[1] 	0
scalar three_caches_scenario_3_links_network.node[1].content_store 	decision_no[1] 	59261
scalar three_caches_scenario_3_links_network.node[2].core_layer 	interests[2] 	49124
scalar three_caches_scenario_3_links_network.node[2].core_layer 	data[2] 	32825
scalar three_caches_scenario_3_links_network.node[2].content_store 	p_hit[2] 	0.33179301359824
scalar three_caches_scenario_3_links_network.node[2].content_store 	hits[2] 	16299
scalar three_caches_scenario_3_links_network.node[2].content_store 	misses[2] 	32825
scalar three_caches_scenario_3_links_network.node[2].content_store 	decision_yes[2] 	722
scalar three_caches_scenario_3_links_network.node[2].content_store 	decision_no[2] 	32103
scalar three_caches_scenario_3_links_network.node[3].core_layer 	interests[3] 	48888
scalar three_caches_scenario_3_links_network.node[3].core_layer 	data[3] 	32096
scalar three_caches_scenario_3_links_network.node[3].content_store 	p_hit[3] 	0.34347897234495
scalar three_caches_scenario_3_links_network.node[3].content_store 	hits[3] 	16792
scalar three_caches_scenario_3_links_network.node[3].content_store 	misses[3] 	32096
scalar three_caches_scenario_3_links_network.node[3].content_store 	decision_yes[3] 	7350
scalar three_caches_scenario_3_links_network.node[3].content_store 	decision_no[3] 	24746
scalar three_caches_scenario_3_links_network.node[4].core_layer 	interests[4] 	59261
scalar three_caches_scenario_3_links_network.node[4].core_layer 	repo_load[4] 	59261
scalar three_caches_scenario_3_links_network.node[4].core_layer 	data[4] 	0
scalar three_caches_scenario_3_links_network.node[4].content_store 	p_hit[4] 	0
scalar three_caches_scenario_3_links_network.node[4].content_store 	hits[4] 	0
scalar three_caches_scenario_3_links_network.node[4].content_store 	misses[4] 	59261
scalar three_caches_scenario_3_links_network.node[4].content_store 	decision_yes[4] 	0
scalar three_caches_scenario_3_links_network.node[4].content_store 	decision_no[4] 	59261
scalar three_caches_scenario_3_links_network.node[5].core_layer 	interests[5] 	32825
scalar three_caches_scenario_3_links_network.node[5].core_layer 	repo_load[5] 	32825
scalar three_caches_scenario_3_links_network.node[5].core_layer 	data[5] 	0
scalar three_caches_scenario_3_links_network.node[5].content_store 	p_hit[5] 	0
scalar three_caches_scenario_3_links_network.node[5].content_store 	hits[5] 	0
scalar three_caches_scenario_3_links_network.node[5].content_store 	misses[5] 	32825
scalar three_caches_scenario_3_links_network.node[5].content_store 	decision_yes[5] 	0
scalar three_caches_scenario_3_links_network.node[5].content_store 	decision_no[5] 	32825
scalar three_caches_scenario_3_links_network.node[6].core_layer 	interests[6] 	32096
scalar three_caches_scenario_3_links_network.node[6].core_layer 	repo_load[6] 	32096
scalar three_caches_scenario_3_links_network.node[6].core_layer 	data[6] 	0
scalar three_caches_scenario_3_links_network.node[6].content_store 	p_hit[6] 	0
scalar three_caches_scenario_3_links_network.node[6].content_store 	hits[6] 	0
scalar three_caches_scenario_3_links_network.node[6].content_store 	misses[6] 	32096
scalar three_caches_scenario_3_links_network.node[6].content_store 	decision_yes[6] 	0
scalar three_caches_scenario_3_links_network.node[6].content_store 	decision_no[6] 	32096
scalar three_caches_scenario_3_links_network.client[0] 	hdistance[0] 	1.9185023124429
scalar three_caches_scenario_3_links_network.client[0] 	downloads[0] 	180545
scalar three_caches_scenario_3_links_network.client[0] 	avg_time[0] 	0
scalar three_caches_scenario_3_links_network.client[0] 	interests_sent[0] 	180545
