version 2
run General-335-20140502-01:40:58-9216
attr D fix0.005
attr F nrr
attr R lru
attr a 0.8
attr configname General
attr csize 1e3
attr ctlg 1e5
attr datetime 20140502-01:40:58
attr experiment General
attr inifile omnetpp.ini
attr iterationvars "$net=three_caches_scenario_3_links, $rep=1, $priceratiovalue=5, $weights=0.2_0.4_0.4, $a=0.8, $ctlg=1e5, $F=nrr, $ttl=1000, $D=fix0.005, $xi=1, $R=lru, $csize=1e3"
attr iterationvars2 "$net=three_caches_scenario_3_links, $rep=1, $priceratiovalue=5, $weights=0.2_0.4_0.4, $a=0.8, $ctlg=1e5, $F=nrr, $ttl=1000, $D=fix0.005, $xi=1, $R=lru, $csize=1e3, $repetition=0"
attr measurement "$net=three_caches_scenario_3_links, $rep=1, $priceratiovalue=5, $weights=0.2_0.4_0.4, $a=0.8, $ctlg=1e5, $F=nrr, $ttl=1000, $D=fix0.005, $xi=1, $R=lru, $csize=1e3"
attr net three_caches_scenario_3_links
attr network networks.${net=three_caches_scenario_3_links}_network
attr priceratiovalue 5
attr processid 9216
attr rep 1
attr repetition 0
attr replication #0
attr resultdir results
attr runnumber 335
attr seedset 1
attr ttl 1000
attr weights 0.2_0.4_0.4
attr xi 1

scalar . 	a 	0.8
scalar . 	csize 	1e3
scalar . 	ctlg 	1e5
scalar . 	priceratiovalue 	5
scalar . 	rep 	1
scalar . 	ttl 	1000
scalar . 	xi 	1
scalar three_caches_scenario_3_links_network.content_distribution 	repo-0 	4
scalar three_caches_scenario_3_links_network.content_distribution 	repo-1 	5
scalar three_caches_scenario_3_links_network.content_distribution 	repo-2 	6
scalar three_caches_scenario_3_links_network.content_distribution 	client-0 	0
scalar three_caches_scenario_3_links_network.content_distribution 	repo-0_card 	19939
scalar three_caches_scenario_3_links_network.content_distribution 	repo-1_card 	40008
scalar three_caches_scenario_3_links_network.content_distribution 	repo-2_card 	40053
scalar three_caches_scenario_3_links_network.statistics 	p_hit 	0.095835970791107
scalar three_caches_scenario_3_links_network.statistics 	interests 	65674.714285714
scalar three_caches_scenario_3_links_network.statistics 	data 	40013.142857143
scalar three_caches_scenario_3_links_network.statistics 	hdistance 	2.1560755103517
scalar three_caches_scenario_3_links_network.statistics 	avg_time 	0
scalar three_caches_scenario_3_links_network.statistics 	downloads 	179631
scalar three_caches_scenario_3_links_network.statistics 	total_cost 	320846
scalar three_caches_scenario_3_links_network.statistics 	total_replicas 	100000
scalar three_caches_scenario_3_links_network.statistics 	interests_sent 	179631
scalar three_caches_scenario_3_links_network.node[0].core_layer 	interests[0] 	179631
scalar three_caches_scenario_3_links_network.node[0].core_layer 	data[0] 	144519
scalar three_caches_scenario_3_links_network.node[0].core_layer 	repo_int[0] 	135573
scalar three_caches_scenario_3_links_network.node[0].content_store 	p_hit[0] 	0.19546737478498
scalar three_caches_scenario_3_links_network.node[0].content_store 	hits[0] 	35112
scalar three_caches_scenario_3_links_network.node[0].content_store 	misses[0] 	144519
scalar three_caches_scenario_3_links_network.node[0].content_store 	decision_yes[0] 	744
scalar three_caches_scenario_3_links_network.node[0].content_store 	decision_no[0] 	143775
scalar three_caches_scenario_3_links_network.node[1].core_layer 	interests[1] 	28367
scalar three_caches_scenario_3_links_network.node[1].core_layer 	data[1] 	28367
scalar three_caches_scenario_3_links_network.node[1].content_store 	p_hit[1] 	0
scalar three_caches_scenario_3_links_network.node[1].content_store 	hits[1] 	0
scalar three_caches_scenario_3_links_network.node[1].content_store 	misses[1] 	28367
scalar three_caches_scenario_3_links_network.node[1].content_store 	decision_yes[1] 	0
scalar three_caches_scenario_3_links_network.node[1].content_store 	decision_no[1] 	28367
scalar three_caches_scenario_3_links_network.node[2].core_layer 	interests[2] 	58867
scalar three_caches_scenario_3_links_network.node[2].core_layer 	data[2] 	53796
scalar three_caches_scenario_3_links_network.node[2].content_store 	p_hit[2] 	0.086143340071687
scalar three_caches_scenario_3_links_network.node[2].content_store 	hits[2] 	5071
scalar three_caches_scenario_3_links_network.node[2].content_store 	misses[2] 	53796
scalar three_caches_scenario_3_links_network.node[2].content_store 	decision_yes[2] 	229
scalar three_caches_scenario_3_links_network.node[2].content_store 	decision_no[2] 	53567
scalar three_caches_scenario_3_links_network.node[3].core_layer 	interests[3] 	57285
scalar three_caches_scenario_3_links_network.node[3].core_layer 	data[3] 	53410
scalar three_caches_scenario_3_links_network.node[3].content_store 	p_hit[3] 	0.067644234965523
scalar three_caches_scenario_3_links_network.node[3].content_store 	hits[3] 	3875
scalar three_caches_scenario_3_links_network.node[3].content_store 	misses[3] 	53410
scalar three_caches_scenario_3_links_network.node[3].content_store 	decision_yes[3] 	240
scalar three_caches_scenario_3_links_network.node[3].content_store 	decision_no[3] 	53170
scalar three_caches_scenario_3_links_network.node[4].core_layer 	interests[4] 	28367
scalar three_caches_scenario_3_links_network.node[4].core_layer 	repo_load[4] 	28367
scalar three_caches_scenario_3_links_network.node[4].core_layer 	data[4] 	0
scalar three_caches_scenario_3_links_network.node[4].content_store 	p_hit[4] 	0
scalar three_caches_scenario_3_links_network.node[4].content_store 	hits[4] 	0
scalar three_caches_scenario_3_links_network.node[4].content_store 	misses[4] 	28367
scalar three_caches_scenario_3_links_network.node[4].content_store 	decision_yes[4] 	0
scalar three_caches_scenario_3_links_network.node[4].content_store 	decision_no[4] 	28367
scalar three_caches_scenario_3_links_network.node[5].core_layer 	interests[5] 	53796
scalar three_caches_scenario_3_links_network.node[5].core_layer 	repo_load[5] 	53796
scalar three_caches_scenario_3_links_network.node[5].core_layer 	data[5] 	0
scalar three_caches_scenario_3_links_network.node[5].content_store 	p_hit[5] 	0
scalar three_caches_scenario_3_links_network.node[5].content_store 	hits[5] 	0
scalar three_caches_scenario_3_links_network.node[5].content_store 	misses[5] 	53796
scalar three_caches_scenario_3_links_network.node[5].content_store 	decision_yes[5] 	0
scalar three_caches_scenario_3_links_network.node[5].content_store 	decision_no[5] 	53796
scalar three_caches_scenario_3_links_network.node[6].core_layer 	interests[6] 	53410
scalar three_caches_scenario_3_links_network.node[6].core_layer 	repo_load[6] 	53410
scalar three_caches_scenario_3_links_network.node[6].core_layer 	data[6] 	0
scalar three_caches_scenario_3_links_network.node[6].content_store 	p_hit[6] 	0
scalar three_caches_scenario_3_links_network.node[6].content_store 	hits[6] 	0
scalar three_caches_scenario_3_links_network.node[6].content_store 	misses[6] 	53410
scalar three_caches_scenario_3_links_network.node[6].content_store 	decision_yes[6] 	0
scalar three_caches_scenario_3_links_network.node[6].content_store 	decision_no[6] 	53410
scalar three_caches_scenario_3_links_network.client[0] 	hdistance[0] 	2.1560755103517
scalar three_caches_scenario_3_links_network.client[0] 	downloads[0] 	179631
scalar three_caches_scenario_3_links_network.client[0] 	avg_time[0] 	0
scalar three_caches_scenario_3_links_network.client[0] 	interests_sent[0] 	179631
