version 2
run General-0-20140902-11:36:30-15481
attr D costprobprodcorr0.01
attr F nrr
attr R lru
attr a 1
attr configname General
attr csize 5
attr ctlg 10
attr datetime 20140902-11:36:30
attr experiment General
attr inifile omnetpp.ini
attr iterationvars "$net=abilene_cost, $rep=1, $priceratiovalue=100, $weights=0.333_0.333_0.334, $lambda=100, $a=1, $ctlg=10, $F=nrr, $ttl=10, $D=costprobprodcorr0.01, $xi=1, $R=lru, $csize=5, $pricebits=0, $window=60, $variance=0.05, $mytime=18"
attr iterationvars2 "$net=abilene_cost, $rep=1, $priceratiovalue=100, $weights=0.333_0.333_0.334, $lambda=100, $a=1, $ctlg=10, $F=nrr, $ttl=10, $D=costprobprodcorr0.01, $xi=1, $R=lru, $csize=5, $pricebits=0, $window=60, $variance=0.05, $mytime=18, $repetition=0"
attr lambda 100
attr measurement "$net=abilene_cost, $rep=1, $priceratiovalue=100, $weights=0.333_0.333_0.334, $lambda=100, $a=1, $ctlg=10, $F=nrr, $ttl=10, $D=costprobprodcorr0.01, $xi=1, $R=lru, $csize=5, $pricebits=0, $window=60, $variance=0.05, $mytime=18"
attr mytime 18
attr net abilene_cost
attr network networks.${net=abilene_cost}_network
attr pricebits 0
attr priceratiovalue 100
attr processid 15481
attr rep 1
attr repetition 0
attr replication #0
attr resultdir results
attr runnumber 0
attr seedset 1
attr ttl 10
attr variance 0.05
attr weights 0.333_0.333_0.334
attr window 60
attr xi 1

scalar . 	a 	1
scalar . 	csize 	5
scalar . 	ctlg 	10
scalar . 	lambda 	100
scalar . 	mytime 	18
scalar . 	pricebits 	0
scalar . 	priceratiovalue 	100
scalar . 	rep 	1
scalar . 	ttl 	10
scalar . 	variance 	0.05
scalar . 	window 	60
scalar . 	xi 	1
scalar abilene_cost_network.content_distribution 	repo-0 	10
scalar abilene_cost_network.content_distribution 	repo-1 	7
scalar abilene_cost_network.content_distribution 	repo-2 	1
scalar abilene_cost_network.content_distribution 	client-0 	5
scalar abilene_cost_network.content_distribution 	client-1 	0
scalar abilene_cost_network.content_distribution 	client-2 	9
scalar abilene_cost_network.content_distribution 	repo-0_card 	2
scalar abilene_cost_network.content_distribution 	repo-0_price 	0
scalar abilene_cost_network.content_distribution 	repo-1_card 	3
scalar abilene_cost_network.content_distribution 	repo-1_price 	1
scalar abilene_cost_network.content_distribution 	repo-2_card 	5
scalar abilene_cost_network.content_distribution 	repo-2_price 	100
scalar abilene_cost_network.statistics 	repo_popularity[0] 	0.14794743259721
scalar abilene_cost_network.statistics 	repo_popularity[1] 	0.25741769407939
scalar abilene_cost_network.statistics 	repo_popularity[2] 	0.5946348733234
scalar abilene_cost_network.statistics 	stabilization_time 	302.6
scalar abilene_cost_network.statistics 	p_hit 	0.28849132589839
scalar abilene_cost_network.statistics 	interests 	1173.8181818182
scalar abilene_cost_network.statistics 	data 	670
scalar abilene_cost_network.statistics 	hdistance 	1.7386946389791
scalar abilene_cost_network.statistics 	avg_time 	0.00978855295
scalar abilene_cost_network.statistics 	downloads 	4922
scalar abilene_cost_network.statistics 	total_cost 	17276
scalar abilene_cost_network.statistics 	total_replicas 	10
scalar abilene_cost_network.statistics 	inner_hit 	0.75660300690776
scalar abilene_cost_network.statistics 	interests_sent 	5541
scalar abilene_cost_network.node[0].core_layer 	interests[0] 	2128
scalar abilene_cost_network.node[0].core_layer 	data[0] 	1088
scalar abilene_cost_network.node[0].core_layer 	repo_int[0] 	1198
scalar abilene_cost_network.node[0].content_store 	p_hit[0] 	0.39426691729323
scalar abilene_cost_network.node[0].content_store 	hits[0] 	839
scalar abilene_cost_network.node[0].content_store 	misses[0] 	1289
scalar abilene_cost_network.node[0].content_store 	decision_yes[0] 	3
scalar abilene_cost_network.node[0].content_store 	decision_no[0] 	1085
scalar abilene_cost_network.node[0].content_store 	decision_ratio[0] 	0.0027573529411765
scalar abilene_cost_network.node[0].content_store 	correction_factor[0] 	0.00029644561705155
scalar abilene_cost_network.node[0].content_store 	xi[0] 	1
scalar abilene_cost_network.node[1].core_layer 	interests[1] 	913
scalar abilene_cost_network.node[1].core_layer 	repo_load[1] 	170
scalar abilene_cost_network.node[1].core_layer 	data[1] 	531
scalar abilene_cost_network.node[1].content_store 	p_hit[1] 	0.23220153340635
scalar abilene_cost_network.node[1].content_store 	hits[1] 	212
scalar abilene_cost_network.node[1].content_store 	misses[1] 	701
scalar abilene_cost_network.node[1].content_store 	decision_yes[1] 	5
scalar abilene_cost_network.node[1].content_store 	decision_no[1] 	696
scalar abilene_cost_network.node[1].content_store 	decision_ratio[1] 	0.007132667617689
scalar abilene_cost_network.node[1].content_store 	correction_factor[1] 	0.00029644561705155
scalar abilene_cost_network.node[1].content_store 	xi[1] 	1
scalar abilene_cost_network.node[2].core_layer 	interests[2] 	724
scalar abilene_cost_network.node[2].core_layer 	data[2] 	591
scalar abilene_cost_network.node[2].content_store 	p_hit[2] 	0.18370165745856
scalar abilene_cost_network.node[2].content_store 	hits[2] 	133
scalar abilene_cost_network.node[2].content_store 	misses[2] 	591
scalar abilene_cost_network.node[2].content_store 	decision_yes[2] 	0
scalar abilene_cost_network.node[2].content_store 	decision_no[2] 	591
scalar abilene_cost_network.node[2].content_store 	decision_ratio[2] 	0
scalar abilene_cost_network.node[2].content_store 	correction_factor[2] 	0.00029644561705155
scalar abilene_cost_network.node[2].content_store 	xi[2] 	1
scalar abilene_cost_network.node[3].core_layer 	interests[3] 	702
scalar abilene_cost_network.node[3].core_layer 	data[3] 	537
scalar abilene_cost_network.node[3].content_store 	p_hit[3] 	0.23504273504274
scalar abilene_cost_network.node[3].content_store 	hits[3] 	165
scalar abilene_cost_network.node[3].content_store 	misses[3] 	537
scalar abilene_cost_network.node[3].content_store 	decision_yes[3] 	0
scalar abilene_cost_network.node[3].content_store 	decision_no[3] 	537
scalar abilene_cost_network.node[3].content_store 	decision_ratio[3] 	0
scalar abilene_cost_network.node[3].content_store 	correction_factor[3] 	0.00029644561705155
scalar abilene_cost_network.node[3].content_store 	xi[3] 	1
scalar abilene_cost_network.node[4].core_layer 	interests[4] 	529
scalar abilene_cost_network.node[4].core_layer 	data[4] 	380
scalar abilene_cost_network.node[4].content_store 	p_hit[4] 	0.28166351606805
scalar abilene_cost_network.node[4].content_store 	hits[4] 	149
scalar abilene_cost_network.node[4].content_store 	misses[4] 	380
scalar abilene_cost_network.node[4].content_store 	decision_yes[4] 	0
scalar abilene_cost_network.node[4].content_store 	decision_no[4] 	380
scalar abilene_cost_network.node[4].content_store 	decision_ratio[4] 	0
scalar abilene_cost_network.node[4].content_store 	correction_factor[4] 	0.00029644561705155
scalar abilene_cost_network.node[4].content_store 	xi[4] 	1
scalar abilene_cost_network.node[5].core_layer 	interests[5] 	1846
scalar abilene_cost_network.node[5].core_layer 	data[5] 	1073
scalar abilene_cost_network.node[5].content_store 	p_hit[5] 	0.34344528710726
scalar abilene_cost_network.node[5].content_store 	hits[5] 	634
scalar abilene_cost_network.node[5].content_store 	misses[5] 	1212
scalar abilene_cost_network.node[5].content_store 	decision_yes[5] 	0
scalar abilene_cost_network.node[5].content_store 	decision_no[5] 	1073
scalar abilene_cost_network.node[5].content_store 	decision_ratio[5] 	0
scalar abilene_cost_network.node[5].content_store 	correction_factor[5] 	0.00029644561705155
scalar abilene_cost_network.node[5].content_store 	xi[5] 	1
scalar abilene_cost_network.node[6].core_layer 	interests[6] 	545
scalar abilene_cost_network.node[6].core_layer 	data[6] 	474
scalar abilene_cost_network.node[6].content_store 	p_hit[6] 	0.1302752293578
scalar abilene_cost_network.node[6].content_store 	hits[6] 	71
scalar abilene_cost_network.node[6].content_store 	misses[6] 	474
scalar abilene_cost_network.node[6].content_store 	decision_yes[6] 	0
scalar abilene_cost_network.node[6].content_store 	decision_no[6] 	474
scalar abilene_cost_network.node[6].content_store 	decision_ratio[6] 	0
scalar abilene_cost_network.node[6].content_store 	correction_factor[6] 	0.00029644561705155
scalar abilene_cost_network.node[6].content_store 	xi[6] 	1
scalar abilene_cost_network.node[7].core_layer 	interests[7] 	1040
scalar abilene_cost_network.node[7].core_layer 	repo_load[7] 	276
scalar abilene_cost_network.node[7].core_layer 	data[7] 	111
scalar abilene_cost_network.node[7].content_store 	p_hit[7] 	0.62788461538462
scalar abilene_cost_network.node[7].content_store 	hits[7] 	653
scalar abilene_cost_network.node[7].content_store 	misses[7] 	387
scalar abilene_cost_network.node[7].content_store 	decision_yes[7] 	1
scalar abilene_cost_network.node[7].content_store 	decision_no[7] 	386
scalar abilene_cost_network.node[7].content_store 	decision_ratio[7] 	0.0025839793281654
scalar abilene_cost_network.node[7].content_store 	correction_factor[7] 	0.00029644561705155
scalar abilene_cost_network.node[7].content_store 	xi[7] 	1
scalar abilene_cost_network.node[8].core_layer 	interests[8] 	682
scalar abilene_cost_network.node[8].core_layer 	data[8] 	524
scalar abilene_cost_network.node[8].content_store 	p_hit[8] 	0.2316715542522
scalar abilene_cost_network.node[8].content_store 	hits[8] 	158
scalar abilene_cost_network.node[8].content_store 	misses[8] 	524
scalar abilene_cost_network.node[8].content_store 	decision_yes[8] 	0
scalar abilene_cost_network.node[8].content_store 	decision_no[8] 	524
scalar abilene_cost_network.node[8].content_store 	decision_ratio[8] 	0
scalar abilene_cost_network.node[8].content_store 	correction_factor[8] 	0.00029644561705155
scalar abilene_cost_network.node[8].content_store 	xi[8] 	1
scalar abilene_cost_network.node[9].core_layer 	interests[9] 	2120
scalar abilene_cost_network.node[9].core_layer 	data[9] 	1492
scalar abilene_cost_network.node[9].content_store 	p_hit[9] 	0.16462264150943
scalar abilene_cost_network.node[9].content_store 	hits[9] 	349
scalar abilene_cost_network.node[9].content_store 	misses[9] 	1771
scalar abilene_cost_network.node[9].content_store 	decision_yes[9] 	0
scalar abilene_cost_network.node[9].content_store 	decision_no[9] 	1492
scalar abilene_cost_network.node[9].content_store 	decision_ratio[9] 	0
scalar abilene_cost_network.node[9].content_store 	correction_factor[9] 	0.00029644561705155
scalar abilene_cost_network.node[9].content_store 	xi[9] 	1
scalar abilene_cost_network.node[10].core_layer 	interests[10] 	1683
scalar abilene_cost_network.node[10].core_layer 	repo_load[10] 	752
scalar abilene_cost_network.node[10].core_layer 	data[10] 	569
scalar abilene_cost_network.node[10].content_store 	p_hit[10] 	0.21509209744504
scalar abilene_cost_network.node[10].content_store 	hits[10] 	362
scalar abilene_cost_network.node[10].content_store 	misses[10] 	1321
scalar abilene_cost_network.node[10].content_store 	decision_yes[10] 	1
scalar abilene_cost_network.node[10].content_store 	decision_no[10] 	1320
scalar abilene_cost_network.node[10].content_store 	decision_ratio[10] 	0.00075700227100681
scalar abilene_cost_network.node[10].content_store 	correction_factor[10] 	0.00029644561705155
scalar abilene_cost_network.node[10].content_store 	xi[10] 	1
scalar abilene_cost_network.client[0] 	hdistance[0] 	1.6257018091079
scalar abilene_cost_network.client[0] 	downloads[0] 	1603
scalar abilene_cost_network.client[0] 	avg_time[0] 	0.009837432439
scalar abilene_cost_network.client[0] 	interests_sent[0] 	1804
scalar abilene_cost_network.client[5] 	hdistance[5] 	1.8242530755712
scalar abilene_cost_network.client[5] 	downloads[5] 	1707
scalar abilene_cost_network.client[5] 	avg_time[5] 	0.009092209164
scalar abilene_cost_network.client[5] 	interests_sent[5] 	1846
scalar abilene_cost_network.client[9] 	hdistance[9] 	1.7661290322581
scalar abilene_cost_network.client[9] 	downloads[9] 	1612
scalar abilene_cost_network.client[9] 	avg_time[9] 	0.010436017247
scalar abilene_cost_network.client[9] 	interests_sent[9] 	1891
