version 2
run General-541-20140502-13:30:52-16128
attr D fix0.1
attr F nrr
attr R lru
attr a 0.8
attr configname General
attr csize 1e3
attr ctlg 1e5
attr datetime 20140502-13:30:52
attr experiment General
attr inifile omnetpp.ini
attr iterationvars "$net=three_caches_scenario_3_links, $rep=4, $priceratiovalue=10, $weights=0.333_0.333_0.334, $a=0.8, $ctlg=1e5, $F=nrr, $ttl=1000, $D=fix0.1, $xi=1, $R=lru, $csize=1e3"
attr iterationvars2 "$net=three_caches_scenario_3_links, $rep=4, $priceratiovalue=10, $weights=0.333_0.333_0.334, $a=0.8, $ctlg=1e5, $F=nrr, $ttl=1000, $D=fix0.1, $xi=1, $R=lru, $csize=1e3, $repetition=0"
attr measurement "$net=three_caches_scenario_3_links, $rep=4, $priceratiovalue=10, $weights=0.333_0.333_0.334, $a=0.8, $ctlg=1e5, $F=nrr, $ttl=1000, $D=fix0.1, $xi=1, $R=lru, $csize=1e3"
attr net three_caches_scenario_3_links
attr network networks.${net=three_caches_scenario_3_links}_network
attr priceratiovalue 10
attr processid 16128
attr rep 4
attr repetition 0
attr replication #0
attr resultdir results
attr runnumber 541
attr seedset 4
attr ttl 1000
attr weights 0.333_0.333_0.334
attr xi 1

scalar . 	a 	0.8
scalar . 	csize 	1e3
scalar . 	ctlg 	1e5
scalar . 	priceratiovalue 	10
scalar . 	rep 	4
scalar . 	ttl 	1000
scalar . 	xi 	1
scalar three_caches_scenario_3_links_network.content_distribution 	repo-0 	4
scalar three_caches_scenario_3_links_network.content_distribution 	repo-1 	5
scalar three_caches_scenario_3_links_network.content_distribution 	repo-2 	6
scalar three_caches_scenario_3_links_network.content_distribution 	client-0 	0
scalar three_caches_scenario_3_links_network.content_distribution 	repo-0_card 	33584
scalar three_caches_scenario_3_links_network.content_distribution 	repo-1_card 	33055
scalar three_caches_scenario_3_links_network.content_distribution 	repo-2_card 	33361
scalar three_caches_scenario_3_links_network.statistics 	p_hit 	0.087483558531627
scalar three_caches_scenario_3_links_network.statistics 	interests 	66904
scalar three_caches_scenario_3_links_network.statistics 	data 	41184.285714286
scalar three_caches_scenario_3_links_network.statistics 	hdistance 	2.0939135071485
scalar three_caches_scenario_3_links_network.statistics 	avg_time 	0
scalar three_caches_scenario_3_links_network.statistics 	downloads 	180038
scalar three_caches_scenario_3_links_network.statistics 	total_cost 	492677
scalar three_caches_scenario_3_links_network.statistics 	total_replicas 	100000
scalar three_caches_scenario_3_links_network.statistics 	interests_sent 	180038
scalar three_caches_scenario_3_links_network.node[0].core_layer 	interests[0] 	180038
scalar three_caches_scenario_3_links_network.node[0].core_layer 	data[0] 	149223
scalar three_caches_scenario_3_links_network.node[0].core_layer 	repo_int[0] 	139067
scalar three_caches_scenario_3_links_network.node[0].content_store 	p_hit[0] 	0.17115831102323
scalar three_caches_scenario_3_links_network.node[0].content_store 	hits[0] 	30815
scalar three_caches_scenario_3_links_network.node[0].content_store 	misses[0] 	149223
scalar three_caches_scenario_3_links_network.node[0].content_store 	decision_yes[0] 	14995
scalar three_caches_scenario_3_links_network.node[0].content_store 	decision_no[0] 	134228
scalar three_caches_scenario_3_links_network.node[1].core_layer 	interests[1] 	50373
scalar three_caches_scenario_3_links_network.node[1].core_layer 	data[1] 	50373
scalar three_caches_scenario_3_links_network.node[1].content_store 	p_hit[1] 	0
scalar three_caches_scenario_3_links_network.node[1].content_store 	hits[1] 	0
scalar three_caches_scenario_3_links_network.node[1].content_store 	misses[1] 	50373
scalar three_caches_scenario_3_links_network.node[1].content_store 	decision_yes[1] 	0
scalar three_caches_scenario_3_links_network.node[1].content_store 	decision_no[1] 	50373
scalar three_caches_scenario_3_links_network.node[2].core_layer 	interests[2] 	48782
scalar three_caches_scenario_3_links_network.node[2].core_layer 	data[2] 	43807
scalar three_caches_scenario_3_links_network.node[2].content_store 	p_hit[2] 	0.10198433848551
scalar three_caches_scenario_3_links_network.node[2].content_store 	hits[2] 	4975
scalar three_caches_scenario_3_links_network.node[2].content_store 	misses[2] 	43807
scalar three_caches_scenario_3_links_network.node[2].content_store 	decision_yes[2] 	4364
scalar three_caches_scenario_3_links_network.node[2].content_store 	decision_no[2] 	39443
scalar three_caches_scenario_3_links_network.node[3].core_layer 	interests[3] 	50068
scalar three_caches_scenario_3_links_network.node[3].core_layer 	data[3] 	44887
scalar three_caches_scenario_3_links_network.node[3].content_store 	p_hit[3] 	0.10347926819525
scalar three_caches_scenario_3_links_network.node[3].content_store 	hits[3] 	5181
scalar three_caches_scenario_3_links_network.node[3].content_store 	misses[3] 	44887
scalar three_caches_scenario_3_links_network.node[3].content_store 	decision_yes[3] 	4413
scalar three_caches_scenario_3_links_network.node[3].content_store 	decision_no[3] 	40474
scalar three_caches_scenario_3_links_network.node[4].core_layer 	interests[4] 	50373
scalar three_caches_scenario_3_links_network.node[4].core_layer 	repo_load[4] 	50373
scalar three_caches_scenario_3_links_network.node[4].core_layer 	data[4] 	0
scalar three_caches_scenario_3_links_network.node[4].content_store 	p_hit[4] 	0
scalar three_caches_scenario_3_links_network.node[4].content_store 	hits[4] 	0
scalar three_caches_scenario_3_links_network.node[4].content_store 	misses[4] 	50373
scalar three_caches_scenario_3_links_network.node[4].content_store 	decision_yes[4] 	0
scalar three_caches_scenario_3_links_network.node[4].content_store 	decision_no[4] 	50373
scalar three_caches_scenario_3_links_network.node[5].core_layer 	interests[5] 	43807
scalar three_caches_scenario_3_links_network.node[5].core_layer 	repo_load[5] 	43807
scalar three_caches_scenario_3_links_network.node[5].core_layer 	data[5] 	0
scalar three_caches_scenario_3_links_network.node[5].content_store 	p_hit[5] 	0
scalar three_caches_scenario_3_links_network.node[5].content_store 	hits[5] 	0
scalar three_caches_scenario_3_links_network.node[5].content_store 	misses[5] 	43807
scalar three_caches_scenario_3_links_network.node[5].content_store 	decision_yes[5] 	0
scalar three_caches_scenario_3_links_network.node[5].content_store 	decision_no[5] 	43807
scalar three_caches_scenario_3_links_network.node[6].core_layer 	interests[6] 	44887
scalar three_caches_scenario_3_links_network.node[6].core_layer 	repo_load[6] 	44887
scalar three_caches_scenario_3_links_network.node[6].core_layer 	data[6] 	0
scalar three_caches_scenario_3_links_network.node[6].content_store 	p_hit[6] 	0
scalar three_caches_scenario_3_links_network.node[6].content_store 	hits[6] 	0
scalar three_caches_scenario_3_links_network.node[6].content_store 	misses[6] 	44887
scalar three_caches_scenario_3_links_network.node[6].content_store 	decision_yes[6] 	0
scalar three_caches_scenario_3_links_network.node[6].content_store 	decision_no[6] 	44887
scalar three_caches_scenario_3_links_network.client[0] 	hdistance[0] 	2.0939135071485
scalar three_caches_scenario_3_links_network.client[0] 	downloads[0] 	180038
scalar three_caches_scenario_3_links_network.client[0] 	avg_time[0] 	0
scalar three_caches_scenario_3_links_network.client[0] 	interests_sent[0] 	180038
