version 2
run General-104-20140502-01:17:48-8978
attr D costprob0.001
attr F nrr
attr R lru
attr a 1.2
attr configname General
attr csize 1e3
attr ctlg 1e5
attr datetime 20140502-01:17:48
attr experiment General
attr inifile omnetpp.ini
attr iterationvars "$net=three_caches_scenario_3_links, $rep=1, $priceratiovalue=1, $weights=0.7_0.15_0.15, $a=1.2, $ctlg=1e5, $F=nrr, $ttl=1000, $D=costprob0.001, $xi=1, $R=lru, $csize=1e3"
attr iterationvars2 "$net=three_caches_scenario_3_links, $rep=1, $priceratiovalue=1, $weights=0.7_0.15_0.15, $a=1.2, $ctlg=1e5, $F=nrr, $ttl=1000, $D=costprob0.001, $xi=1, $R=lru, $csize=1e3, $repetition=0"
attr measurement "$net=three_caches_scenario_3_links, $rep=1, $priceratiovalue=1, $weights=0.7_0.15_0.15, $a=1.2, $ctlg=1e5, $F=nrr, $ttl=1000, $D=costprob0.001, $xi=1, $R=lru, $csize=1e3"
attr net three_caches_scenario_3_links
attr network networks.${net=three_caches_scenario_3_links}_network
attr priceratiovalue 1
attr processid 8978
attr rep 1
attr repetition 0
attr replication #0
attr resultdir results
attr runnumber 104
attr seedset 1
attr ttl 1000
attr weights 0.7_0.15_0.15
attr xi 1

scalar . 	a 	1.2
scalar . 	csize 	1e3
scalar . 	ctlg 	1e5
scalar . 	priceratiovalue 	1
scalar . 	rep 	1
scalar . 	ttl 	1000
scalar . 	xi 	1
scalar three_caches_scenario_3_links_network.content_distribution 	repo-0 	4
scalar three_caches_scenario_3_links_network.content_distribution 	repo-1 	5
scalar three_caches_scenario_3_links_network.content_distribution 	repo-2 	6
scalar three_caches_scenario_3_links_network.content_distribution 	client-0 	0
scalar three_caches_scenario_3_links_network.content_distribution 	repo-0_card 	70018
scalar three_caches_scenario_3_links_network.content_distribution 	repo-1_card 	15023
scalar three_caches_scenario_3_links_network.content_distribution 	repo-2_card 	14959
scalar three_caches_scenario_3_links_network.statistics 	p_hit 	0.071583531959213
scalar three_caches_scenario_3_links_network.statistics 	interests 	69405.428571429
scalar three_caches_scenario_3_links_network.statistics 	data 	43723
scalar three_caches_scenario_3_links_network.statistics 	hdistance 	1.7409735394405
scalar three_caches_scenario_3_links_network.statistics 	avg_time 	0
scalar three_caches_scenario_3_links_network.statistics 	downloads 	179777
scalar three_caches_scenario_3_links_network.statistics 	total_cost 	6926
scalar three_caches_scenario_3_links_network.statistics 	total_replicas 	100000
scalar three_caches_scenario_3_links_network.statistics 	interests_sent 	179777
scalar three_caches_scenario_3_links_network.node[0].core_layer 	interests[0] 	179777
scalar three_caches_scenario_3_links_network.node[0].core_layer 	data[0] 	161062
scalar three_caches_scenario_3_links_network.node[0].core_layer 	repo_int[0] 	144999
scalar three_caches_scenario_3_links_network.node[0].content_store 	p_hit[0] 	0.10410119203235
scalar three_caches_scenario_3_links_network.node[0].content_store 	hits[0] 	18715
scalar three_caches_scenario_3_links_network.node[0].content_store 	misses[0] 	161062
scalar three_caches_scenario_3_links_network.node[0].content_store 	decision_yes[0] 	20
scalar three_caches_scenario_3_links_network.node[0].content_store 	decision_no[0] 	161042
scalar three_caches_scenario_3_links_network.node[1].core_layer 	interests[1] 	138073
scalar three_caches_scenario_3_links_network.node[1].core_layer 	data[1] 	138073
scalar three_caches_scenario_3_links_network.node[1].content_store 	p_hit[1] 	0
scalar three_caches_scenario_3_links_network.node[1].content_store 	hits[1] 	0
scalar three_caches_scenario_3_links_network.node[1].content_store 	misses[1] 	138073
scalar three_caches_scenario_3_links_network.node[1].content_store 	decision_yes[1] 	0
scalar three_caches_scenario_3_links_network.node[1].content_store 	decision_no[1] 	138073
scalar three_caches_scenario_3_links_network.node[2].core_layer 	interests[2] 	14652
scalar three_caches_scenario_3_links_network.node[2].core_layer 	data[2] 	3394
scalar three_caches_scenario_3_links_network.node[2].content_store 	p_hit[2] 	0.76835926835927
scalar three_caches_scenario_3_links_network.node[2].content_store 	hits[2] 	11258
scalar three_caches_scenario_3_links_network.node[2].content_store 	misses[2] 	3394
scalar three_caches_scenario_3_links_network.node[2].content_store 	decision_yes[2] 	10
scalar three_caches_scenario_3_links_network.node[2].content_store 	decision_no[2] 	3384
scalar three_caches_scenario_3_links_network.node[3].core_layer 	interests[3] 	8337
scalar three_caches_scenario_3_links_network.node[3].core_layer 	data[3] 	3532
scalar three_caches_scenario_3_links_network.node[3].content_store 	p_hit[3] 	0.57634640758066
scalar three_caches_scenario_3_links_network.node[3].content_store 	hits[3] 	4805
scalar three_caches_scenario_3_links_network.node[3].content_store 	misses[3] 	3532
scalar three_caches_scenario_3_links_network.node[3].content_store 	decision_yes[3] 	21
scalar three_caches_scenario_3_links_network.node[3].content_store 	decision_no[3] 	3511
scalar three_caches_scenario_3_links_network.node[4].core_layer 	interests[4] 	138073
scalar three_caches_scenario_3_links_network.node[4].core_layer 	repo_load[4] 	138073
scalar three_caches_scenario_3_links_network.node[4].core_layer 	data[4] 	0
scalar three_caches_scenario_3_links_network.node[4].content_store 	p_hit[4] 	0
scalar three_caches_scenario_3_links_network.node[4].content_store 	hits[4] 	0
scalar three_caches_scenario_3_links_network.node[4].content_store 	misses[4] 	138073
scalar three_caches_scenario_3_links_network.node[4].content_store 	decision_yes[4] 	0
scalar three_caches_scenario_3_links_network.node[4].content_store 	decision_no[4] 	138073
scalar three_caches_scenario_3_links_network.node[5].core_layer 	interests[5] 	3394
scalar three_caches_scenario_3_links_network.node[5].core_layer 	repo_load[5] 	3394
scalar three_caches_scenario_3_links_network.node[5].core_layer 	data[5] 	0
scalar three_caches_scenario_3_links_network.node[5].content_store 	p_hit[5] 	0
scalar three_caches_scenario_3_links_network.node[5].content_store 	hits[5] 	0
scalar three_caches_scenario_3_links_network.node[5].content_store 	misses[5] 	3394
scalar three_caches_scenario_3_links_network.node[5].content_store 	decision_yes[5] 	0
scalar three_caches_scenario_3_links_network.node[5].content_store 	decision_no[5] 	3394
scalar three_caches_scenario_3_links_network.node[6].core_layer 	interests[6] 	3532
scalar three_caches_scenario_3_links_network.node[6].core_layer 	repo_load[6] 	3532
scalar three_caches_scenario_3_links_network.node[6].core_layer 	data[6] 	0
scalar three_caches_scenario_3_links_network.node[6].content_store 	p_hit[6] 	0
scalar three_caches_scenario_3_links_network.node[6].content_store 	hits[6] 	0
scalar three_caches_scenario_3_links_network.node[6].content_store 	misses[6] 	3532
scalar three_caches_scenario_3_links_network.node[6].content_store 	decision_yes[6] 	0
scalar three_caches_scenario_3_links_network.node[6].content_store 	decision_no[6] 	3532
scalar three_caches_scenario_3_links_network.client[0] 	hdistance[0] 	1.7409735394405
scalar three_caches_scenario_3_links_network.client[0] 	downloads[0] 	179777
scalar three_caches_scenario_3_links_network.client[0] 	avg_time[0] 	0
scalar three_caches_scenario_3_links_network.client[0] 	interests_sent[0] 	179777
