version 2
run General-347-20140502-01:42:29-9229
attr D fix0.005
attr F nrr
attr R lru
attr a 1
attr configname General
attr csize 1e3
attr ctlg 1e5
attr datetime 20140502-01:42:29
attr experiment General
attr inifile omnetpp.ini
attr iterationvars "$net=three_caches_scenario_3_links, $rep=1, $priceratiovalue=5, $weights=0.2_0.4_0.4, $a=1, $ctlg=1e5, $F=nrr, $ttl=1000, $D=fix0.005, $xi=1, $R=lru, $csize=1e3"
attr iterationvars2 "$net=three_caches_scenario_3_links, $rep=1, $priceratiovalue=5, $weights=0.2_0.4_0.4, $a=1, $ctlg=1e5, $F=nrr, $ttl=1000, $D=fix0.005, $xi=1, $R=lru, $csize=1e3, $repetition=0"
attr measurement "$net=three_caches_scenario_3_links, $rep=1, $priceratiovalue=5, $weights=0.2_0.4_0.4, $a=1, $ctlg=1e5, $F=nrr, $ttl=1000, $D=fix0.005, $xi=1, $R=lru, $csize=1e3"
attr net three_caches_scenario_3_links
attr network networks.${net=three_caches_scenario_3_links}_network
attr priceratiovalue 5
attr processid 9229
attr rep 1
attr repetition 0
attr replication #0
attr resultdir results
attr runnumber 347
attr seedset 1
attr ttl 1000
attr weights 0.2_0.4_0.4
attr xi 1

scalar . 	a 	1
scalar . 	csize 	1e3
scalar . 	ctlg 	1e5
scalar . 	priceratiovalue 	5
scalar . 	rep 	1
scalar . 	ttl 	1000
scalar . 	xi 	1
scalar three_caches_scenario_3_links_network.content_distribution 	repo-0 	4
scalar three_caches_scenario_3_links_network.content_distribution 	repo-1 	5
scalar three_caches_scenario_3_links_network.content_distribution 	repo-2 	6
scalar three_caches_scenario_3_links_network.content_distribution 	client-0 	0
scalar three_caches_scenario_3_links_network.content_distribution 	repo-0_card 	19939
scalar three_caches_scenario_3_links_network.content_distribution 	repo-1_card 	40008
scalar three_caches_scenario_3_links_network.content_distribution 	repo-2_card 	40053
scalar three_caches_scenario_3_links_network.statistics 	p_hit 	0.27705193008856
scalar three_caches_scenario_3_links_network.statistics 	interests 	50504.714285714
scalar three_caches_scenario_3_links_network.statistics 	data 	24776.857142857
scalar three_caches_scenario_3_links_network.statistics 	hdistance 	1.316793914323
scalar three_caches_scenario_3_links_network.statistics 	avg_time 	0
scalar three_caches_scenario_3_links_network.statistics 	downloads 	180095
scalar three_caches_scenario_3_links_network.statistics 	total_cost 	192066
scalar three_caches_scenario_3_links_network.statistics 	total_replicas 	100000
scalar three_caches_scenario_3_links_network.statistics 	interests_sent 	180095
scalar three_caches_scenario_3_links_network.node[0].core_layer 	interests[0] 	180095
scalar three_caches_scenario_3_links_network.node[0].core_layer 	data[0] 	91290
scalar three_caches_scenario_3_links_network.node[0].core_layer 	repo_int[0] 	82148
scalar three_caches_scenario_3_links_network.node[0].content_store 	p_hit[0] 	0.49310086343319
scalar three_caches_scenario_3_links_network.node[0].content_store 	hits[0] 	88805
scalar three_caches_scenario_3_links_network.node[0].content_store 	misses[0] 	91290
scalar three_caches_scenario_3_links_network.node[0].content_store 	decision_yes[0] 	412
scalar three_caches_scenario_3_links_network.node[0].content_store 	decision_no[0] 	90878
scalar three_caches_scenario_3_links_network.node[1].core_layer 	interests[1] 	18438
scalar three_caches_scenario_3_links_network.node[1].core_layer 	data[1] 	18438
scalar three_caches_scenario_3_links_network.node[1].content_store 	p_hit[1] 	0
scalar three_caches_scenario_3_links_network.node[1].content_store 	hits[1] 	0
scalar three_caches_scenario_3_links_network.node[1].content_store 	misses[1] 	18438
scalar three_caches_scenario_3_links_network.node[1].content_store 	decision_yes[1] 	0
scalar three_caches_scenario_3_links_network.node[1].content_store 	decision_no[1] 	18438
scalar three_caches_scenario_3_links_network.node[2].core_layer 	interests[2] 	35993
scalar three_caches_scenario_3_links_network.node[2].core_layer 	data[2] 	31621
scalar three_caches_scenario_3_links_network.node[2].content_store 	p_hit[2] 	0.12146806323452
scalar three_caches_scenario_3_links_network.node[2].content_store 	hits[2] 	4372
scalar three_caches_scenario_3_links_network.node[2].content_store 	misses[2] 	31621
scalar three_caches_scenario_3_links_network.node[2].content_store 	decision_yes[2] 	144
scalar three_caches_scenario_3_links_network.node[2].content_store 	decision_no[2] 	31477
scalar three_caches_scenario_3_links_network.node[3].core_layer 	interests[3] 	36859
scalar three_caches_scenario_3_links_network.node[3].core_layer 	data[3] 	32089
scalar three_caches_scenario_3_links_network.node[3].content_store 	p_hit[3] 	0.12941208388725
scalar three_caches_scenario_3_links_network.node[3].content_store 	hits[3] 	4770
scalar three_caches_scenario_3_links_network.node[3].content_store 	misses[3] 	32089
scalar three_caches_scenario_3_links_network.node[3].content_store 	decision_yes[3] 	166
scalar three_caches_scenario_3_links_network.node[3].content_store 	decision_no[3] 	31923
scalar three_caches_scenario_3_links_network.node[4].core_layer 	interests[4] 	18438
scalar three_caches_scenario_3_links_network.node[4].core_layer 	repo_load[4] 	18438
scalar three_caches_scenario_3_links_network.node[4].core_layer 	data[4] 	0
scalar three_caches_scenario_3_links_network.node[4].content_store 	p_hit[4] 	0
scalar three_caches_scenario_3_links_network.node[4].content_store 	hits[4] 	0
scalar three_caches_scenario_3_links_network.node[4].content_store 	misses[4] 	18438
scalar three_caches_scenario_3_links_network.node[4].content_store 	decision_yes[4] 	0
scalar three_caches_scenario_3_links_network.node[4].content_store 	decision_no[4] 	18438
scalar three_caches_scenario_3_links_network.node[5].core_layer 	interests[5] 	31621
scalar three_caches_scenario_3_links_network.node[5].core_layer 	repo_load[5] 	31621
scalar three_caches_scenario_3_links_network.node[5].core_layer 	data[5] 	0
scalar three_caches_scenario_3_links_network.node[5].content_store 	p_hit[5] 	0
scalar three_caches_scenario_3_links_network.node[5].content_store 	hits[5] 	0
scalar three_caches_scenario_3_links_network.node[5].content_store 	misses[5] 	31621
scalar three_caches_scenario_3_links_network.node[5].content_store 	decision_yes[5] 	0
scalar three_caches_scenario_3_links_network.node[5].content_store 	decision_no[5] 	31621
scalar three_caches_scenario_3_links_network.node[6].core_layer 	interests[6] 	32089
scalar three_caches_scenario_3_links_network.node[6].core_layer 	repo_load[6] 	32089
scalar three_caches_scenario_3_links_network.node[6].core_layer 	data[6] 	0
scalar three_caches_scenario_3_links_network.node[6].content_store 	p_hit[6] 	0
scalar three_caches_scenario_3_links_network.node[6].content_store 	hits[6] 	0
scalar three_caches_scenario_3_links_network.node[6].content_store 	misses[6] 	32089
scalar three_caches_scenario_3_links_network.node[6].content_store 	decision_yes[6] 	0
scalar three_caches_scenario_3_links_network.node[6].content_store 	decision_no[6] 	32089
scalar three_caches_scenario_3_links_network.client[0] 	hdistance[0] 	1.316793914323
scalar three_caches_scenario_3_links_network.client[0] 	downloads[0] 	180095
scalar three_caches_scenario_3_links_network.client[0] 	avg_time[0] 	0
scalar three_caches_scenario_3_links_network.client[0] 	interests_sent[0] 	180095
