version 2
run General-2051-20140422-20:22:32-15874
attr D costprob0.01
attr F nrr
attr R lru
attr a 1.2
attr configname General
attr csize 10
attr ctlg 10^3
attr datetime 20140422-20:22:32
attr experiment General
attr inifile omnetpp.ini
attr iterationvars "$net=simple_scenario, $rep=18, $priceratiovalue=1, $a=1.2, $ctlg=10^3, $F=nrr, $ttl=1000, $D=costprob0.01, $R=lru, $csize=10"
attr iterationvars2 "$net=simple_scenario, $rep=18, $priceratiovalue=1, $a=1.2, $ctlg=10^3, $F=nrr, $ttl=1000, $D=costprob0.01, $R=lru, $csize=10, $repetition=0"
attr measurement "$net=simple_scenario, $rep=18, $priceratiovalue=1, $a=1.2, $ctlg=10^3, $F=nrr, $ttl=1000, $D=costprob0.01, $R=lru, $csize=10"
attr net simple_scenario
attr network networks.${net=simple_scenario}_network
attr priceratiovalue 1
attr processid 15874
attr rep 18
attr repetition 0
attr replication #0
attr resultdir results
attr runnumber 2051
attr seedset 18
attr ttl 1000

scalar . 	a 	1.2
scalar . 	csize 	10
scalar . 	priceratiovalue 	1
scalar . 	rep 	18
scalar . 	ttl 	1000
scalar simple_scenario_network.content_distribution 	repo-0 	3
scalar simple_scenario_network.content_distribution 	repo-1 	4
scalar simple_scenario_network.content_distribution 	client-0 	0
scalar simple_scenario_network.content_distribution 	repo-0_card 	499
scalar simple_scenario_network.content_distribution 	repo-1_card 	501
scalar simple_scenario_network.statistics 	p_hit 	0.30317751337135
scalar simple_scenario_network.statistics 	interests 	79087
scalar simple_scenario_network.statistics 	data 	43085.2
scalar simple_scenario_network.statistics 	hdistance 	1.530745684938
scalar simple_scenario_network.statistics 	avg_time 	0.001985603547
scalar simple_scenario_network.statistics 	downloads 	180009
scalar simple_scenario_network.statistics 	total_cost 	30060
scalar simple_scenario_network.node[0].core_layer 	interests[0] 	180009
scalar simple_scenario_network.node[0].core_layer 	data[0] 	155304
scalar simple_scenario_network.node[0].core_layer 	repo_int[0] 	60122
scalar simple_scenario_network.node[0].content_store 	p_hit[0] 	0.13724313784311
scalar simple_scenario_network.node[0].content_store 	hits[0] 	24705
scalar simple_scenario_network.node[0].content_store 	misses[0] 	155304
scalar simple_scenario_network.node[1].core_layer 	interests[1] 	95786
scalar simple_scenario_network.node[1].core_layer 	data[1] 	28693
scalar simple_scenario_network.node[1].content_store 	p_hit[1] 	0.70044682939052
scalar simple_scenario_network.node[1].content_store 	hits[1] 	67093
scalar simple_scenario_network.node[1].content_store 	misses[1] 	28693
scalar simple_scenario_network.node[2].core_layer 	interests[2] 	59518
scalar simple_scenario_network.node[2].core_layer 	data[2] 	31429
scalar simple_scenario_network.node[2].content_store 	p_hit[2] 	0.47194126146712
scalar simple_scenario_network.node[2].content_store 	hits[2] 	28089
scalar simple_scenario_network.node[2].content_store 	misses[2] 	31429
scalar simple_scenario_network.node[3].core_layer 	interests[3] 	28693
scalar simple_scenario_network.node[3].core_layer 	repo_load[3] 	28693
scalar simple_scenario_network.node[3].core_layer 	data[3] 	0
scalar simple_scenario_network.node[3].content_store 	p_hit[3] 	0
scalar simple_scenario_network.node[3].content_store 	hits[3] 	0
scalar simple_scenario_network.node[3].content_store 	misses[3] 	28693
scalar simple_scenario_network.node[4].core_layer 	interests[4] 	31429
scalar simple_scenario_network.node[4].core_layer 	repo_load[4] 	31429
scalar simple_scenario_network.node[4].core_layer 	data[4] 	0
scalar simple_scenario_network.node[4].content_store 	p_hit[4] 	0
scalar simple_scenario_network.node[4].content_store 	hits[4] 	0
scalar simple_scenario_network.node[4].content_store 	misses[4] 	31429
scalar simple_scenario_network.client[0] 	hdistance[0] 	1.530745684938
scalar simple_scenario_network.client[0] 	downloads[0] 	180009
scalar simple_scenario_network.client[0] 	avg_time[0] 	0.001985603547
