version 2
run General-14-20140625-19:33:01-12860
attr D costprobprodcorr0.01
attr F spr
attr R lru
attr a 1
attr configname General
attr csize 1e3
attr ctlg 1e5
attr datetime 20140625-19:33:01
attr experiment General
attr inifile omnetpp.ini
attr iterationvars "$net=abilene_cost, $rep=1, $priceratiovalue=10, $weights=0.333_0.333_0.334, $lambda=100, $a=1, $ctlg=1e5, $F=spr, $ttl=1000, $D=costprobprodcorr0.01, $xi=0.05, $R=lru, $csize=1e3, $pricebits=0, $mytime=1800"
attr iterationvars2 "$net=abilene_cost, $rep=1, $priceratiovalue=10, $weights=0.333_0.333_0.334, $lambda=100, $a=1, $ctlg=1e5, $F=spr, $ttl=1000, $D=costprobprodcorr0.01, $xi=0.05, $R=lru, $csize=1e3, $pricebits=0, $mytime=1800, $repetition=0"
attr lambda 100
attr measurement "$net=abilene_cost, $rep=1, $priceratiovalue=10, $weights=0.333_0.333_0.334, $lambda=100, $a=1, $ctlg=1e5, $F=spr, $ttl=1000, $D=costprobprodcorr0.01, $xi=0.05, $R=lru, $csize=1e3, $pricebits=0, $mytime=1800"
attr mytime 1800
attr net abilene_cost
attr network "networks.${net=geant_cost, abilene_cost}_network"
attr pricebits 0
attr priceratiovalue 10
attr processid 12860
attr rep 1
attr repetition 0
attr replication #0
attr resultdir results
attr runnumber 14
attr seedset 1
attr ttl 1000
attr weights 0.333_0.333_0.334
attr xi 0.05

scalar . 	a 	1
scalar . 	csize 	1e3
scalar . 	ctlg 	1e5
scalar . 	lambda 	100
scalar . 	mytime 	1800
scalar . 	pricebits 	0
scalar . 	priceratiovalue 	10
scalar . 	rep 	1
scalar . 	ttl 	1000
scalar . 	xi 	0.05
scalar abilene_cost_network.content_distribution 	repo-0 	11
scalar abilene_cost_network.content_distribution 	repo-1 	12
scalar abilene_cost_network.content_distribution 	repo-2 	13
scalar abilene_cost_network.content_distribution 	client-0 	5
scalar abilene_cost_network.content_distribution 	client-1 	0
scalar abilene_cost_network.content_distribution 	client-2 	9
scalar abilene_cost_network.content_distribution 	repo-0_card 	33396
scalar abilene_cost_network.content_distribution 	repo-1_card 	33039
scalar abilene_cost_network.content_distribution 	repo-2_card 	33565
scalar abilene_cost_network.statistics 	repo_popularity[0] 	0.28686251265602
scalar abilene_cost_network.statistics 	repo_popularity[1] 	0.2886063426465
scalar abilene_cost_network.statistics 	repo_popularity[2] 	0.42453114469748
scalar abilene_cost_network.statistics 	stabilization_time 	423.1
scalar abilene_cost_network.node[1].face$o[4].channel 	price[1] 	0
scalar abilene_cost_network.node[1].face$o[4].channel 	represented_price[1] 	0
scalar abilene_cost_network.node[7].face$o[4].channel 	price[7] 	0
scalar abilene_cost_network.node[7].face$o[4].channel 	represented_price[7] 	0
scalar abilene_cost_network.node[10].face$o[4].channel 	price[10] 	0
scalar abilene_cost_network.node[10].face$o[4].channel 	represented_price[10] 	0
scalar abilene_cost_network.node[11].face$o[1].channel 	price[11] 	0
scalar abilene_cost_network.node[11].face$o[1].channel 	represented_price[11] 	0
scalar abilene_cost_network.node[12].face$o[1].channel 	price[12] 	1
scalar abilene_cost_network.node[12].face$o[1].channel 	represented_price[12] 	1
scalar abilene_cost_network.node[13].face$o[1].channel 	price[13] 	10
scalar abilene_cost_network.node[13].face$o[1].channel 	represented_price[13] 	10
scalar abilene_cost_network.statistics 	p_hit 	0.10377643383691
scalar abilene_cost_network.statistics 	interests 	142863.42857143
scalar abilene_cost_network.statistics 	data 	104341
scalar abilene_cost_network.statistics 	hdistance 	3.3558991917638
scalar abilene_cost_network.statistics 	avg_time 	0.013719539116
scalar abilene_cost_network.statistics 	downloads 	532324
scalar abilene_cost_network.statistics 	total_cost 	964850
scalar abilene_cost_network.statistics 	total_replicas 	100000
scalar abilene_cost_network.statistics 	inner_hit 	0.38991666729285
scalar abilene_cost_network.statistics 	interests_sent 	539313
scalar abilene_cost_network.node[0].core_layer 	interests[0] 	180267
scalar abilene_cost_network.node[0].core_layer 	data[0] 	160282
scalar abilene_cost_network.node[0].core_layer 	repo_int[0] 	324762
scalar abilene_cost_network.node[0].content_store 	p_hit[0] 	0.10048982897591
scalar abilene_cost_network.node[0].content_store 	hits[0] 	18115
scalar abilene_cost_network.node[0].content_store 	misses[0] 	162152
scalar abilene_cost_network.node[0].content_store 	decision_yes[0] 	861
scalar abilene_cost_network.node[0].content_store 	decision_no[0] 	159421
scalar abilene_cost_network.node[0].content_store 	decision_ratio[0] 	0.0053717822338129
scalar abilene_cost_network.node[0].content_store 	correction_factor[0] 	0.014129199815938
scalar abilene_cost_network.node[0].content_store 	xi[0] 	0.05
scalar abilene_cost_network.node[1].core_layer 	interests[1] 	267880
scalar abilene_cost_network.node[1].core_layer 	data[1] 	185984
scalar abilene_cost_network.node[1].content_store 	p_hit[1] 	0.30571897864716
scalar abilene_cost_network.node[1].content_store 	hits[1] 	81896
scalar abilene_cost_network.node[1].content_store 	misses[1] 	185984
scalar abilene_cost_network.node[1].content_store 	decision_yes[1] 	1720
scalar abilene_cost_network.node[1].content_store 	decision_no[1] 	184264
scalar abilene_cost_network.node[1].content_store 	decision_ratio[1] 	0.0092481073640743
scalar abilene_cost_network.node[1].content_store 	correction_factor[1] 	0.014129199815938
scalar abilene_cost_network.node[1].content_store 	xi[1] 	0.05
scalar abilene_cost_network.node[2].core_layer 	interests[2] 	151828
scalar abilene_cost_network.node[2].core_layer 	data[2] 	144547
scalar abilene_cost_network.node[2].content_store 	p_hit[2] 	0.0479621677161
scalar abilene_cost_network.node[2].content_store 	hits[2] 	7282
scalar abilene_cost_network.node[2].content_store 	misses[2] 	144546
scalar abilene_cost_network.node[2].content_store 	decision_yes[2] 	803
scalar abilene_cost_network.node[2].content_store 	decision_no[2] 	143744
scalar abilene_cost_network.node[2].content_store 	decision_ratio[2] 	0.0055552865158045
scalar abilene_cost_network.node[2].content_store 	correction_factor[2] 	0.014129199815938
scalar abilene_cost_network.node[2].content_store 	xi[2] 	0.05
scalar abilene_cost_network.node[3].core_layer 	interests[3] 	158714
scalar abilene_cost_network.node[3].core_layer 	data[3] 	145656
scalar abilene_cost_network.node[3].content_store 	p_hit[3] 	0.082273775470343
scalar abilene_cost_network.node[3].content_store 	hits[3] 	13058
scalar abilene_cost_network.node[3].content_store 	misses[3] 	145656
scalar abilene_cost_network.node[3].content_store 	decision_yes[3] 	835
scalar abilene_cost_network.node[3].content_store 	decision_no[3] 	144821
scalar abilene_cost_network.node[3].content_store 	decision_ratio[3] 	0.0057326852309551
scalar abilene_cost_network.node[3].content_store 	correction_factor[3] 	0.014129199815938
scalar abilene_cost_network.node[3].content_store 	xi[3] 	0.05
scalar abilene_cost_network.node[4].core_layer 	interests[4] 	123843
scalar abilene_cost_network.node[4].core_layer 	data[4] 	115501
scalar abilene_cost_network.node[4].content_store 	p_hit[4] 	0.067351404600987
scalar abilene_cost_network.node[4].content_store 	hits[4] 	8341
scalar abilene_cost_network.node[4].content_store 	misses[4] 	115502
scalar abilene_cost_network.node[4].content_store 	decision_yes[4] 	412
scalar abilene_cost_network.node[4].content_store 	decision_no[4] 	115089
scalar abilene_cost_network.node[4].content_store 	decision_ratio[4] 	0.003567068683388
scalar abilene_cost_network.node[4].content_store 	correction_factor[4] 	0.014129199815938
scalar abilene_cost_network.node[4].content_store 	xi[4] 	0.05
scalar abilene_cost_network.node[5].core_layer 	interests[5] 	179873
scalar abilene_cost_network.node[5].core_layer 	data[5] 	169592
scalar abilene_cost_network.node[5].content_store 	p_hit[5] 	0.040400727179732
scalar abilene_cost_network.node[5].content_store 	hits[5] 	7267
scalar abilene_cost_network.node[5].content_store 	misses[5] 	172606
scalar abilene_cost_network.node[5].content_store 	decision_yes[5] 	855
scalar abilene_cost_network.node[5].content_store 	decision_no[5] 	168737
scalar abilene_cost_network.node[5].content_store 	decision_ratio[5] 	0.0050415113920468
scalar abilene_cost_network.node[5].content_store 	correction_factor[5] 	0.014129199815938
scalar abilene_cost_network.node[5].content_store 	xi[5] 	0.05
scalar abilene_cost_network.node[6].core_layer 	interests[6] 	45749
scalar abilene_cost_network.node[6].core_layer 	data[6] 	41300
scalar abilene_cost_network.node[6].content_store 	p_hit[6] 	0.097248027279285
scalar abilene_cost_network.node[6].content_store 	hits[6] 	4449
scalar abilene_cost_network.node[6].content_store 	misses[6] 	41300
scalar abilene_cost_network.node[6].content_store 	decision_yes[6] 	343
scalar abilene_cost_network.node[6].content_store 	decision_no[6] 	40957
scalar abilene_cost_network.node[6].content_store 	decision_ratio[6] 	0.0083050847457627
scalar abilene_cost_network.node[6].content_store 	correction_factor[6] 	0.014129199815938
scalar abilene_cost_network.node[6].content_store 	xi[6] 	0.05
scalar abilene_cost_network.node[7].core_layer 	interests[7] 	122400
scalar abilene_cost_network.node[7].core_layer 	data[7] 	82440
scalar abilene_cost_network.node[7].content_store 	p_hit[7] 	0.32647058823529
scalar abilene_cost_network.node[7].content_store 	hits[7] 	39960
scalar abilene_cost_network.node[7].content_store 	misses[7] 	82440
scalar abilene_cost_network.node[7].content_store 	decision_yes[7] 	1103
scalar abilene_cost_network.node[7].content_store 	decision_no[7] 	81337
scalar abilene_cost_network.node[7].content_store 	decision_ratio[7] 	0.013379427462397
scalar abilene_cost_network.node[7].content_store 	correction_factor[7] 	0.014129199815938
scalar abilene_cost_network.node[7].content_store 	xi[7] 	0.05
scalar abilene_cost_network.node[8].core_layer 	interests[8] 	46585
scalar abilene_cost_network.node[8].core_layer 	data[8] 	40720
scalar abilene_cost_network.node[8].content_store 	p_hit[8] 	0.12589889449394
scalar abilene_cost_network.node[8].content_store 	hits[8] 	5865
scalar abilene_cost_network.node[8].content_store 	misses[8] 	40720
scalar abilene_cost_network.node[8].content_store 	decision_yes[8] 	384
scalar abilene_cost_network.node[8].content_store 	decision_no[8] 	40336
scalar abilene_cost_network.node[8].content_store 	decision_ratio[8] 	0.0094302554027505
scalar abilene_cost_network.node[8].content_store 	correction_factor[8] 	0.014129199815938
scalar abilene_cost_network.node[8].content_store 	xi[8] 	0.05
scalar abilene_cost_network.node[9].core_layer 	interests[9] 	179173
scalar abilene_cost_network.node[9].core_layer 	data[9] 	162847
scalar abilene_cost_network.node[9].content_store 	p_hit[9] 	0.079370217610912
scalar abilene_cost_network.node[9].content_store 	hits[9] 	14221
scalar abilene_cost_network.node[9].content_store 	misses[9] 	164952
scalar abilene_cost_network.node[9].content_store 	decision_yes[9] 	879
scalar abilene_cost_network.node[9].content_store 	decision_no[9] 	161968
scalar abilene_cost_network.node[9].content_store 	decision_ratio[9] 	0.0053977045938826
scalar abilene_cost_network.node[9].content_store 	correction_factor[9] 	0.014129199815938
scalar abilene_cost_network.node[9].content_store 	xi[9] 	0.05
scalar abilene_cost_network.node[10].core_layer 	interests[10] 	219014
scalar abilene_cost_network.node[10].core_layer 	data[10] 	211905
scalar abilene_cost_network.node[10].content_store 	p_hit[10] 	0.032454546284712
scalar abilene_cost_network.node[10].content_store 	hits[10] 	7108
scalar abilene_cost_network.node[10].content_store 	misses[10] 	211906
scalar abilene_cost_network.node[10].content_store 	decision_yes[10] 	478
scalar abilene_cost_network.node[10].content_store 	decision_no[10] 	211427
scalar abilene_cost_network.node[10].content_store 	decision_ratio[10] 	0.002255727802553
scalar abilene_cost_network.node[10].content_store 	correction_factor[10] 	0.014129199815938
scalar abilene_cost_network.node[10].content_store 	xi[10] 	0.05
scalar abilene_cost_network.node[11].core_layer 	interests[11] 	154081
scalar abilene_cost_network.node[11].core_layer 	repo_load[11] 	154081
scalar abilene_cost_network.node[11].core_layer 	data[11] 	0
scalar abilene_cost_network.node[11].content_store 	p_hit[11] 	0
scalar abilene_cost_network.node[11].content_store 	hits[11] 	0
scalar abilene_cost_network.node[11].content_store 	misses[11] 	154081
scalar abilene_cost_network.node[11].content_store 	decision_yes[11] 	0
scalar abilene_cost_network.node[11].content_store 	decision_no[11] 	154081
scalar abilene_cost_network.node[11].content_store 	decision_ratio[11] 	0
scalar abilene_cost_network.node[12].core_layer 	interests[12] 	82440
scalar abilene_cost_network.node[12].core_layer 	repo_load[12] 	82440
scalar abilene_cost_network.node[12].core_layer 	data[12] 	0
scalar abilene_cost_network.node[12].content_store 	p_hit[12] 	0
scalar abilene_cost_network.node[12].content_store 	hits[12] 	0
scalar abilene_cost_network.node[12].content_store 	misses[12] 	82440
scalar abilene_cost_network.node[12].content_store 	decision_yes[12] 	0
scalar abilene_cost_network.node[12].content_store 	decision_no[12] 	82440
scalar abilene_cost_network.node[12].content_store 	decision_ratio[12] 	0
scalar abilene_cost_network.node[13].core_layer 	interests[13] 	88241
scalar abilene_cost_network.node[13].core_layer 	repo_load[13] 	88241
scalar abilene_cost_network.node[13].core_layer 	data[13] 	0
scalar abilene_cost_network.node[13].content_store 	p_hit[13] 	0
scalar abilene_cost_network.node[13].content_store 	hits[13] 	0
scalar abilene_cost_network.node[13].content_store 	misses[13] 	88241
scalar abilene_cost_network.node[13].content_store 	decision_yes[13] 	0
scalar abilene_cost_network.node[13].content_store 	decision_no[13] 	88241
scalar abilene_cost_network.node[13].content_store 	decision_ratio[13] 	0
scalar abilene_cost_network.client[0] 	hdistance[0] 	2.8693924225183
scalar abilene_cost_network.client[0] 	downloads[0] 	178397
scalar abilene_cost_network.client[0] 	avg_time[0] 	0.012594126647
scalar abilene_cost_network.client[0] 	interests_sent[0] 	180267
scalar abilene_cost_network.client[5] 	hdistance[5] 	4.5047693360247
scalar abilene_cost_network.client[5] 	downloads[5] 	176859
scalar abilene_cost_network.client[5] 	avg_time[5] 	0.017518510302
scalar abilene_cost_network.client[5] 	interests_sent[5] 	179873
scalar abilene_cost_network.client[9] 	hdistance[9] 	2.6935358167484
scalar abilene_cost_network.client[9] 	downloads[9] 	177068
scalar abilene_cost_network.client[9] 	avg_time[9] 	0.0110459804
scalar abilene_cost_network.client[9] 	interests_sent[9] 	179173
