version 2
run General-45-20140502-09:55:42-13090
attr D fix0.001
attr F nrr
attr R lru
attr a 0.8
attr configname General
attr csize 1e3
attr ctlg 1e5
attr datetime 20140502-09:55:42
attr experiment General
attr inifile omnetpp.ini
attr iterationvars "$net=three_caches_scenario_3_links, $rep=1, $priceratiovalue=2, $weights=0.333_0.333_0.334, $a=0.8, $ctlg=1e5, $F=nrr, $ttl=1000, $D=fix0.001, $xi=1, $R=lru, $csize=1e3"
attr iterationvars2 "$net=three_caches_scenario_3_links, $rep=1, $priceratiovalue=2, $weights=0.333_0.333_0.334, $a=0.8, $ctlg=1e5, $F=nrr, $ttl=1000, $D=fix0.001, $xi=1, $R=lru, $csize=1e3, $repetition=0"
attr measurement "$net=three_caches_scenario_3_links, $rep=1, $priceratiovalue=2, $weights=0.333_0.333_0.334, $a=0.8, $ctlg=1e5, $F=nrr, $ttl=1000, $D=fix0.001, $xi=1, $R=lru, $csize=1e3"
attr net three_caches_scenario_3_links
attr network networks.${net=three_caches_scenario_3_links}_network
attr priceratiovalue 2
attr processid 13090
attr rep 1
attr repetition 0
attr replication #0
attr resultdir results
attr runnumber 45
attr seedset 1
attr ttl 1000
attr weights 0.333_0.333_0.334
attr xi 1

scalar . 	a 	0.8
scalar . 	csize 	1e3
scalar . 	ctlg 	1e5
scalar . 	priceratiovalue 	2
scalar . 	rep 	1
scalar . 	ttl 	1000
scalar . 	xi 	1
scalar three_caches_scenario_3_links_network.content_distribution 	repo-0 	4
scalar three_caches_scenario_3_links_network.content_distribution 	repo-1 	5
scalar three_caches_scenario_3_links_network.content_distribution 	repo-2 	6
scalar three_caches_scenario_3_links_network.content_distribution 	client-0 	0
scalar three_caches_scenario_3_links_network.content_distribution 	repo-0_card 	33352
scalar three_caches_scenario_3_links_network.content_distribution 	repo-1_card 	33263
scalar three_caches_scenario_3_links_network.content_distribution 	repo-2_card 	33385
scalar three_caches_scenario_3_links_network.statistics 	p_hit 	0.094712481916758
scalar three_caches_scenario_3_links_network.statistics 	interests 	65372.285714286
scalar three_caches_scenario_3_links_network.statistics 	data 	39735.571428571
scalar three_caches_scenario_3_links_network.statistics 	hdistance 	2.0449578450548
scalar three_caches_scenario_3_links_network.statistics 	avg_time 	0
scalar three_caches_scenario_3_links_network.statistics 	downloads 	179457
scalar three_caches_scenario_3_links_network.statistics 	total_cost 	133897
scalar three_caches_scenario_3_links_network.statistics 	total_replicas 	100000
scalar three_caches_scenario_3_links_network.statistics 	interests_sent 	179457
scalar three_caches_scenario_3_links_network.node[0].core_layer 	interests[0] 	179457
scalar three_caches_scenario_3_links_network.node[0].core_layer 	data[0] 	142033
scalar three_caches_scenario_3_links_network.node[0].core_layer 	repo_int[0] 	136116
scalar three_caches_scenario_3_links_network.node[0].content_store 	p_hit[0] 	0.20854020740344
scalar three_caches_scenario_3_links_network.node[0].content_store 	hits[0] 	37424
scalar three_caches_scenario_3_links_network.node[0].content_store 	misses[0] 	142033
scalar three_caches_scenario_3_links_network.node[0].content_store 	decision_yes[0] 	127
scalar three_caches_scenario_3_links_network.node[0].content_store 	decision_no[0] 	141906
scalar three_caches_scenario_3_links_network.node[1].core_layer 	interests[1] 	47283
scalar three_caches_scenario_3_links_network.node[1].core_layer 	data[1] 	47283
scalar three_caches_scenario_3_links_network.node[1].content_store 	p_hit[1] 	0
scalar three_caches_scenario_3_links_network.node[1].content_store 	hits[1] 	0
scalar three_caches_scenario_3_links_network.node[1].content_store 	misses[1] 	47283
scalar three_caches_scenario_3_links_network.node[1].content_store 	decision_yes[1] 	0
scalar three_caches_scenario_3_links_network.node[1].content_store 	decision_no[1] 	47283
scalar three_caches_scenario_3_links_network.node[2].core_layer 	interests[2] 	46828
scalar three_caches_scenario_3_links_network.node[2].core_layer 	data[2] 	43769
scalar three_caches_scenario_3_links_network.node[2].content_store 	p_hit[2] 	0.06532416502947
scalar three_caches_scenario_3_links_network.node[2].content_store 	hits[2] 	3059
scalar three_caches_scenario_3_links_network.node[2].content_store 	misses[2] 	43769
scalar three_caches_scenario_3_links_network.node[2].content_store 	decision_yes[2] 	38
scalar three_caches_scenario_3_links_network.node[2].content_store 	decision_no[2] 	43731
scalar three_caches_scenario_3_links_network.node[3].core_layer 	interests[3] 	47922
scalar three_caches_scenario_3_links_network.node[3].core_layer 	data[3] 	45064
scalar three_caches_scenario_3_links_network.node[3].content_store 	p_hit[3] 	0.059638579358124
scalar three_caches_scenario_3_links_network.node[3].content_store 	hits[3] 	2858
scalar three_caches_scenario_3_links_network.node[3].content_store 	misses[3] 	45064
scalar three_caches_scenario_3_links_network.node[3].content_store 	decision_yes[3] 	50
scalar three_caches_scenario_3_links_network.node[3].content_store 	decision_no[3] 	45014
scalar three_caches_scenario_3_links_network.node[4].core_layer 	interests[4] 	47283
scalar three_caches_scenario_3_links_network.node[4].core_layer 	repo_load[4] 	47283
scalar three_caches_scenario_3_links_network.node[4].core_layer 	data[4] 	0
scalar three_caches_scenario_3_links_network.node[4].content_store 	p_hit[4] 	0
scalar three_caches_scenario_3_links_network.node[4].content_store 	hits[4] 	0
scalar three_caches_scenario_3_links_network.node[4].content_store 	misses[4] 	47283
scalar three_caches_scenario_3_links_network.node[4].content_store 	decision_yes[4] 	0
scalar three_caches_scenario_3_links_network.node[4].content_store 	decision_no[4] 	47283
scalar three_caches_scenario_3_links_network.node[5].core_layer 	interests[5] 	43769
scalar three_caches_scenario_3_links_network.node[5].core_layer 	repo_load[5] 	43769
scalar three_caches_scenario_3_links_network.node[5].core_layer 	data[5] 	0
scalar three_caches_scenario_3_links_network.node[5].content_store 	p_hit[5] 	0
scalar three_caches_scenario_3_links_network.node[5].content_store 	hits[5] 	0
scalar three_caches_scenario_3_links_network.node[5].content_store 	misses[5] 	43769
scalar three_caches_scenario_3_links_network.node[5].content_store 	decision_yes[5] 	0
scalar three_caches_scenario_3_links_network.node[5].content_store 	decision_no[5] 	43769
scalar three_caches_scenario_3_links_network.node[6].core_layer 	interests[6] 	45064
scalar three_caches_scenario_3_links_network.node[6].core_layer 	repo_load[6] 	45064
scalar three_caches_scenario_3_links_network.node[6].core_layer 	data[6] 	0
scalar three_caches_scenario_3_links_network.node[6].content_store 	p_hit[6] 	0
scalar three_caches_scenario_3_links_network.node[6].content_store 	hits[6] 	0
scalar three_caches_scenario_3_links_network.node[6].content_store 	misses[6] 	45064
scalar three_caches_scenario_3_links_network.node[6].content_store 	decision_yes[6] 	0
scalar three_caches_scenario_3_links_network.node[6].content_store 	decision_no[6] 	45064
scalar three_caches_scenario_3_links_network.client[0] 	hdistance[0] 	2.0449578450548
scalar three_caches_scenario_3_links_network.client[0] 	downloads[0] 	179457
scalar three_caches_scenario_3_links_network.client[0] 	avg_time[0] 	0
scalar three_caches_scenario_3_links_network.client[0] 	interests_sent[0] 	179457
