version 2
run General-621-20140502-13:59:31-16449
attr D fix0.001
attr F nrr
attr R lru
attr a 0.8
attr configname General
attr csize 1e3
attr ctlg 1e5
attr datetime 20140502-13:59:31
attr experiment General
attr inifile omnetpp.ini
attr iterationvars "$net=three_caches_scenario_3_links, $rep=5, $priceratiovalue=2, $weights=0.333_0.333_0.334, $a=0.8, $ctlg=1e5, $F=nrr, $ttl=1000, $D=fix0.001, $xi=1, $R=lru, $csize=1e3"
attr iterationvars2 "$net=three_caches_scenario_3_links, $rep=5, $priceratiovalue=2, $weights=0.333_0.333_0.334, $a=0.8, $ctlg=1e5, $F=nrr, $ttl=1000, $D=fix0.001, $xi=1, $R=lru, $csize=1e3, $repetition=0"
attr measurement "$net=three_caches_scenario_3_links, $rep=5, $priceratiovalue=2, $weights=0.333_0.333_0.334, $a=0.8, $ctlg=1e5, $F=nrr, $ttl=1000, $D=fix0.001, $xi=1, $R=lru, $csize=1e3"
attr net three_caches_scenario_3_links
attr network networks.${net=three_caches_scenario_3_links}_network
attr priceratiovalue 2
attr processid 16449
attr rep 5
attr repetition 0
attr replication #0
attr resultdir results
attr runnumber 621
attr seedset 5
attr ttl 1000
attr weights 0.333_0.333_0.334
attr xi 1

scalar . 	a 	0.8
scalar . 	csize 	1e3
scalar . 	ctlg 	1e5
scalar . 	priceratiovalue 	2
scalar . 	rep 	5
scalar . 	ttl 	1000
scalar . 	xi 	1
scalar three_caches_scenario_3_links_network.content_distribution 	repo-0 	4
scalar three_caches_scenario_3_links_network.content_distribution 	repo-1 	5
scalar three_caches_scenario_3_links_network.content_distribution 	repo-2 	6
scalar three_caches_scenario_3_links_network.content_distribution 	client-0 	0
scalar three_caches_scenario_3_links_network.content_distribution 	repo-0_card 	33274
scalar three_caches_scenario_3_links_network.content_distribution 	repo-1_card 	33323
scalar three_caches_scenario_3_links_network.content_distribution 	repo-2_card 	33403
scalar three_caches_scenario_3_links_network.statistics 	p_hit 	0.097204384969076
scalar three_caches_scenario_3_links_network.statistics 	interests 	65183.714285714
scalar three_caches_scenario_3_links_network.statistics 	data 	39528.285714286
scalar three_caches_scenario_3_links_network.statistics 	hdistance 	2.032858542887
scalar three_caches_scenario_3_links_network.statistics 	avg_time 	0
scalar three_caches_scenario_3_links_network.statistics 	downloads 	179588
scalar three_caches_scenario_3_links_network.statistics 	total_cost 	132540
scalar three_caches_scenario_3_links_network.statistics 	total_replicas 	100000
scalar three_caches_scenario_3_links_network.statistics 	interests_sent 	179588
scalar three_caches_scenario_3_links_network.node[0].core_layer 	interests[0] 	179588
scalar three_caches_scenario_3_links_network.node[0].core_layer 	data[0] 	141463
scalar three_caches_scenario_3_links_network.node[0].core_layer 	repo_int[0] 	135235
scalar three_caches_scenario_3_links_network.node[0].content_store 	p_hit[0] 	0.21229146713589
scalar three_caches_scenario_3_links_network.node[0].content_store 	hits[0] 	38125
scalar three_caches_scenario_3_links_network.node[0].content_store 	misses[0] 	141463
scalar three_caches_scenario_3_links_network.node[0].content_store 	decision_yes[0] 	138
scalar three_caches_scenario_3_links_network.node[0].content_store 	decision_no[0] 	141325
scalar three_caches_scenario_3_links_network.node[1].core_layer 	interests[1] 	46856
scalar three_caches_scenario_3_links_network.node[1].core_layer 	data[1] 	46856
scalar three_caches_scenario_3_links_network.node[1].content_store 	p_hit[1] 	0
scalar three_caches_scenario_3_links_network.node[1].content_store 	hits[1] 	0
scalar three_caches_scenario_3_links_network.node[1].content_store 	misses[1] 	46856
scalar three_caches_scenario_3_links_network.node[1].content_store 	decision_yes[1] 	0
scalar three_caches_scenario_3_links_network.node[1].content_store 	decision_no[1] 	46856
scalar three_caches_scenario_3_links_network.node[2].core_layer 	interests[2] 	47102
scalar three_caches_scenario_3_links_network.node[2].core_layer 	data[2] 	44218
scalar three_caches_scenario_3_links_network.node[2].content_store 	p_hit[2] 	0.061228822555306
scalar three_caches_scenario_3_links_network.node[2].content_store 	hits[2] 	2884
scalar three_caches_scenario_3_links_network.node[2].content_store 	misses[2] 	44218
scalar three_caches_scenario_3_links_network.node[2].content_store 	decision_yes[2] 	43
scalar three_caches_scenario_3_links_network.node[2].content_store 	decision_no[2] 	44175
scalar three_caches_scenario_3_links_network.node[3].core_layer 	interests[3] 	47505
scalar three_caches_scenario_3_links_network.node[3].core_layer 	data[3] 	44161
scalar three_caches_scenario_3_links_network.node[3].content_store 	p_hit[3] 	0.070392590253658
scalar three_caches_scenario_3_links_network.node[3].content_store 	hits[3] 	3344
scalar three_caches_scenario_3_links_network.node[3].content_store 	misses[3] 	44161
scalar three_caches_scenario_3_links_network.node[3].content_store 	decision_yes[3] 	44
scalar three_caches_scenario_3_links_network.node[3].content_store 	decision_no[3] 	44117
scalar three_caches_scenario_3_links_network.node[4].core_layer 	interests[4] 	46856
scalar three_caches_scenario_3_links_network.node[4].core_layer 	repo_load[4] 	46856
scalar three_caches_scenario_3_links_network.node[4].core_layer 	data[4] 	0
scalar three_caches_scenario_3_links_network.node[4].content_store 	p_hit[4] 	0
scalar three_caches_scenario_3_links_network.node[4].content_store 	hits[4] 	0
scalar three_caches_scenario_3_links_network.node[4].content_store 	misses[4] 	46856
scalar three_caches_scenario_3_links_network.node[4].content_store 	decision_yes[4] 	0
scalar three_caches_scenario_3_links_network.node[4].content_store 	decision_no[4] 	46856
scalar three_caches_scenario_3_links_network.node[5].core_layer 	interests[5] 	44218
scalar three_caches_scenario_3_links_network.node[5].core_layer 	repo_load[5] 	44218
scalar three_caches_scenario_3_links_network.node[5].core_layer 	data[5] 	0
scalar three_caches_scenario_3_links_network.node[5].content_store 	p_hit[5] 	0
scalar three_caches_scenario_3_links_network.node[5].content_store 	hits[5] 	0
scalar three_caches_scenario_3_links_network.node[5].content_store 	misses[5] 	44218
scalar three_caches_scenario_3_links_network.node[5].content_store 	decision_yes[5] 	0
scalar three_caches_scenario_3_links_network.node[5].content_store 	decision_no[5] 	44218
scalar three_caches_scenario_3_links_network.node[6].core_layer 	interests[6] 	44161
scalar three_caches_scenario_3_links_network.node[6].core_layer 	repo_load[6] 	44161
scalar three_caches_scenario_3_links_network.node[6].core_layer 	data[6] 	0
scalar three_caches_scenario_3_links_network.node[6].content_store 	p_hit[6] 	0
scalar three_caches_scenario_3_links_network.node[6].content_store 	hits[6] 	0
scalar three_caches_scenario_3_links_network.node[6].content_store 	misses[6] 	44161
scalar three_caches_scenario_3_links_network.node[6].content_store 	decision_yes[6] 	0
scalar three_caches_scenario_3_links_network.node[6].content_store 	decision_no[6] 	44161
scalar three_caches_scenario_3_links_network.client[0] 	hdistance[0] 	2.032858542887
scalar three_caches_scenario_3_links_network.client[0] 	downloads[0] 	179588
scalar three_caches_scenario_3_links_network.client[0] 	avg_time[0] 	0
scalar three_caches_scenario_3_links_network.client[0] 	interests_sent[0] 	179588
