version 2
run General-388-20140422-19:46:51-27112
attr D costprob0.1
attr F nrr
attr R lru
attr a 0
attr configname General
attr csize 10
attr ctlg 10^3
attr datetime 20140422-19:46:51
attr experiment General
attr inifile omnetpp.ini
attr iterationvars "$net=simple_scenario, $rep=4, $priceratiovalue=3, $a=0, $ctlg=10^3, $F=nrr, $ttl=1000, $D=costprob0.1, $R=lru, $csize=10"
attr iterationvars2 "$net=simple_scenario, $rep=4, $priceratiovalue=3, $a=0, $ctlg=10^3, $F=nrr, $ttl=1000, $D=costprob0.1, $R=lru, $csize=10, $repetition=0"
attr measurement "$net=simple_scenario, $rep=4, $priceratiovalue=3, $a=0, $ctlg=10^3, $F=nrr, $ttl=1000, $D=costprob0.1, $R=lru, $csize=10"
attr net simple_scenario
attr network networks.${net=simple_scenario}_network
attr priceratiovalue 3
attr processid 27112
attr rep 4
attr repetition 0
attr replication #0
attr resultdir results
attr runnumber 388
attr seedset 4
attr ttl 1000

scalar . 	a 	0
scalar . 	csize 	10
scalar . 	priceratiovalue 	3
scalar . 	rep 	4
scalar . 	ttl 	1000
scalar simple_scenario_network.content_distribution 	repo-0 	3
scalar simple_scenario_network.content_distribution 	repo-1 	4
scalar simple_scenario_network.content_distribution 	client-0 	0
scalar simple_scenario_network.content_distribution 	repo-0_card 	490
scalar simple_scenario_network.content_distribution 	repo-1_card 	510
scalar simple_scenario_network.statistics 	p_hit 	0.0099227648575434
scalar simple_scenario_network.statistics 	interests 	107127.4
scalar simple_scenario_network.statistics 	data 	70943
scalar simple_scenario_network.statistics 	hdistance 	2.9312182179969
scalar simple_scenario_network.statistics 	avg_time 	0.001999742116
scalar simple_scenario_network.statistics 	downloads 	180920
scalar simple_scenario_network.statistics 	total_cost 	88558
scalar simple_scenario_network.node[0].core_layer 	interests[0] 	180922
scalar simple_scenario_network.node[0].core_layer 	data[0] 	179108
scalar simple_scenario_network.node[0].core_layer 	repo_int[0] 	175607
scalar simple_scenario_network.node[0].content_store 	p_hit[0] 	0.01002642022529
scalar simple_scenario_network.node[0].content_store 	hits[0] 	1814
scalar simple_scenario_network.node[0].content_store 	misses[0] 	179108
scalar simple_scenario_network.node[1].core_layer 	interests[1] 	88071
scalar simple_scenario_network.node[1].core_layer 	data[1] 	86293
scalar simple_scenario_network.node[1].content_store 	p_hit[1] 	0.020188257201576
scalar simple_scenario_network.node[1].content_store 	hits[1] 	1778
scalar simple_scenario_network.node[1].content_store 	misses[1] 	86293
scalar simple_scenario_network.node[2].core_layer 	interests[2] 	91037
scalar simple_scenario_network.node[2].core_layer 	data[2] 	89314
scalar simple_scenario_network.node[2].content_store 	p_hit[2] 	0.018926370596571
scalar simple_scenario_network.node[2].content_store 	hits[2] 	1723
scalar simple_scenario_network.node[2].content_store 	misses[2] 	89314
scalar simple_scenario_network.node[3].core_layer 	interests[3] 	86293
scalar simple_scenario_network.node[3].core_layer 	repo_load[3] 	86293
scalar simple_scenario_network.node[3].core_layer 	data[3] 	0
scalar simple_scenario_network.node[3].content_store 	p_hit[3] 	0
scalar simple_scenario_network.node[3].content_store 	hits[3] 	0
scalar simple_scenario_network.node[3].content_store 	misses[3] 	86293
scalar simple_scenario_network.node[4].core_layer 	interests[4] 	89314
scalar simple_scenario_network.node[4].core_layer 	repo_load[4] 	89314
scalar simple_scenario_network.node[4].core_layer 	data[4] 	0
scalar simple_scenario_network.node[4].content_store 	p_hit[4] 	0
scalar simple_scenario_network.node[4].content_store 	hits[4] 	0
scalar simple_scenario_network.node[4].content_store 	misses[4] 	89314
scalar simple_scenario_network.client[0] 	hdistance[0] 	2.9312182179969
scalar simple_scenario_network.client[0] 	downloads[0] 	180920
scalar simple_scenario_network.client[0] 	avg_time[0] 	0.001999742116
