version 2
run General-0-20140626-13:05:33-9979
attr D costprobprodcorr0.01
attr F nrr
attr R lru
attr a 1
attr configname General
attr csize 1e3
attr ctlg 1e5
attr datetime 20140626-13:05:33
attr experiment General
attr inifile omnetpp.ini
attr iterationvars "$net=geant_cost, $rep=1, $priceratiovalue=10, $weights=0.333_0.333_0.334, $lambda=100, $a=1, $ctlg=1e5, $F=nrr, $ttl=1000, $D=costprobprodcorr0.01, $xi=0.25, $R=lru, $csize=1e3, $pricebits=0, $mytime=1800"
attr iterationvars2 "$net=geant_cost, $rep=1, $priceratiovalue=10, $weights=0.333_0.333_0.334, $lambda=100, $a=1, $ctlg=1e5, $F=nrr, $ttl=1000, $D=costprobprodcorr0.01, $xi=0.25, $R=lru, $csize=1e3, $pricebits=0, $mytime=1800, $repetition=0"
attr lambda 100
attr measurement "$net=geant_cost, $rep=1, $priceratiovalue=10, $weights=0.333_0.333_0.334, $lambda=100, $a=1, $ctlg=1e5, $F=nrr, $ttl=1000, $D=costprobprodcorr0.01, $xi=0.25, $R=lru, $csize=1e3, $pricebits=0, $mytime=1800"
attr mytime 1800
attr net geant_cost
attr network networks.${net=geant_cost}_network
attr pricebits 0
attr priceratiovalue 10
attr processid 9979
attr rep 1
attr repetition 0
attr replication #0
attr resultdir results
attr runnumber 0
attr seedset 1
attr ttl 1000
attr weights 0.333_0.333_0.334
attr xi 0.25

scalar . 	a 	1
scalar . 	csize 	1e3
scalar . 	ctlg 	1e5
scalar . 	lambda 	100
scalar . 	mytime 	1800
scalar . 	pricebits 	0
scalar . 	priceratiovalue 	10
scalar . 	rep 	1
scalar . 	ttl 	1000
scalar . 	xi 	0.25
scalar geant_cost_network.content_distribution 	repo-0 	22
scalar geant_cost_network.content_distribution 	repo-1 	23
scalar geant_cost_network.content_distribution 	repo-2 	24
scalar geant_cost_network.content_distribution 	client-0 	20
scalar geant_cost_network.content_distribution 	client-1 	10
scalar geant_cost_network.content_distribution 	client-2 	12
scalar geant_cost_network.content_distribution 	client-3 	9
scalar geant_cost_network.content_distribution 	client-4 	5
scalar geant_cost_network.content_distribution 	repo-0_card 	33396
scalar geant_cost_network.content_distribution 	repo-1_card 	33039
scalar geant_cost_network.content_distribution 	repo-2_card 	33565
scalar geant_cost_network.statistics 	repo_popularity[0] 	0.28686251265602
scalar geant_cost_network.statistics 	repo_popularity[1] 	0.2886063426465
scalar geant_cost_network.statistics 	repo_popularity[2] 	0.42453114469748
scalar geant_cost_network.statistics 	stabilization_time 	36060
scalar geant_cost_network.node[7].face$o[4].channel 	price[7] 	0
scalar geant_cost_network.node[7].face$o[4].channel 	represented_price[7] 	0
scalar geant_cost_network.node[8].face$o[3].channel 	price[8] 	0
scalar geant_cost_network.node[8].face$o[3].channel 	represented_price[8] 	0
scalar geant_cost_network.node[21].face$o[5].channel 	price[21] 	0
scalar geant_cost_network.node[21].face$o[5].channel 	represented_price[21] 	0
scalar geant_cost_network.node[22].face$o[1].channel 	price[22] 	0
scalar geant_cost_network.node[22].face$o[1].channel 	represented_price[22] 	0
scalar geant_cost_network.node[23].face$o[1].channel 	price[23] 	1
scalar geant_cost_network.node[23].face$o[1].channel 	represented_price[23] 	1
scalar geant_cost_network.node[24].face$o[1].channel 	price[24] 	10
scalar geant_cost_network.node[24].face$o[1].channel 	represented_price[24] 	10
scalar geant_cost_network.statistics 	p_hit 	0.10107434890375
scalar geant_cost_network.statistics 	interests 	144660.64
scalar geant_cost_network.statistics 	data 	108647.52
scalar geant_cost_network.statistics 	hdistance 	3.6425938856607
scalar geant_cost_network.statistics 	avg_time 	0.006981368991
scalar geant_cost_network.statistics 	downloads 	893983
scalar geant_cost_network.statistics 	total_cost 	1483153
scalar geant_cost_network.statistics 	total_replicas 	100000
scalar geant_cost_network.statistics 	inner_hit 	0.41478641092728
scalar geant_cost_network.statistics 	interests_sent 	900331
scalar geant_cost_network.node[0].core_layer 	interests[0] 	0
scalar geant_cost_network.node[0].core_layer 	data[0] 	0
scalar geant_cost_network.node[0].core_layer 	repo_int[0] 	523171
scalar geant_cost_network.node[0].content_store 	p_hit[0] 	-nan
scalar geant_cost_network.node[0].content_store 	hits[0] 	0
scalar geant_cost_network.node[0].content_store 	misses[0] 	0
scalar geant_cost_network.node[0].content_store 	decision_yes[0] 	0
scalar geant_cost_network.node[0].content_store 	decision_no[0] 	0
scalar geant_cost_network.node[0].content_store 	decision_ratio[0] 	0
scalar geant_cost_network.node[0].content_store 	correction_factor[0] 	0.010788122829233
scalar geant_cost_network.node[0].content_store 	xi[0] 	0.25
scalar geant_cost_network.node[1].core_layer 	interests[1] 	0
scalar geant_cost_network.node[1].core_layer 	data[1] 	0
scalar geant_cost_network.node[1].content_store 	p_hit[1] 	-nan
scalar geant_cost_network.node[1].content_store 	hits[1] 	0
scalar geant_cost_network.node[1].content_store 	misses[1] 	0
scalar geant_cost_network.node[1].content_store 	decision_yes[1] 	0
scalar geant_cost_network.node[1].content_store 	decision_no[1] 	0
scalar geant_cost_network.node[1].content_store 	decision_ratio[1] 	0
scalar geant_cost_network.node[1].content_store 	correction_factor[1] 	0.010788122829233
scalar geant_cost_network.node[1].content_store 	xi[1] 	0.25
scalar geant_cost_network.node[2].core_layer 	interests[2] 	0
scalar geant_cost_network.node[2].core_layer 	data[2] 	0
scalar geant_cost_network.node[2].content_store 	p_hit[2] 	-nan
scalar geant_cost_network.node[2].content_store 	hits[2] 	0
scalar geant_cost_network.node[2].content_store 	misses[2] 	0
scalar geant_cost_network.node[2].content_store 	decision_yes[2] 	0
scalar geant_cost_network.node[2].content_store 	decision_no[2] 	0
scalar geant_cost_network.node[2].content_store 	decision_ratio[2] 	0
scalar geant_cost_network.node[2].content_store 	correction_factor[2] 	0.010788122829233
scalar geant_cost_network.node[2].content_store 	xi[2] 	0.25
scalar geant_cost_network.node[3].core_layer 	interests[3] 	255203
scalar geant_cost_network.node[3].core_layer 	data[3] 	245198
scalar geant_cost_network.node[3].content_store 	p_hit[3] 	0.03914138940373
scalar geant_cost_network.node[3].content_store 	hits[3] 	9989
scalar geant_cost_network.node[3].content_store 	misses[3] 	245214
scalar geant_cost_network.node[3].content_store 	decision_yes[3] 	1556
scalar geant_cost_network.node[3].content_store 	decision_no[3] 	243642
scalar geant_cost_network.node[3].content_store 	decision_ratio[3] 	0.006345891891451
scalar geant_cost_network.node[3].content_store 	correction_factor[3] 	0.010788122829233
scalar geant_cost_network.node[3].content_store 	xi[3] 	0.25
scalar geant_cost_network.node[4].core_layer 	interests[4] 	310207
scalar geant_cost_network.node[4].core_layer 	data[4] 	287743
scalar geant_cost_network.node[4].content_store 	p_hit[4] 	0.072203399665385
scalar geant_cost_network.node[4].content_store 	hits[4] 	22398
scalar geant_cost_network.node[4].content_store 	misses[4] 	287809
scalar geant_cost_network.node[4].content_store 	decision_yes[4] 	1886
scalar geant_cost_network.node[4].content_store 	decision_no[4] 	285857
scalar geant_cost_network.node[4].content_store 	decision_ratio[4] 	0.0065544600563697
scalar geant_cost_network.node[4].content_store 	correction_factor[4] 	0.010788122829233
scalar geant_cost_network.node[4].content_store 	xi[4] 	0.25
scalar geant_cost_network.node[5].core_layer 	interests[5] 	206858
scalar geant_cost_network.node[5].core_layer 	data[5] 	178046
scalar geant_cost_network.node[5].content_store 	p_hit[5] 	0.12881783639018
scalar geant_cost_network.node[5].content_store 	hits[5] 	26647
scalar geant_cost_network.node[5].content_store 	misses[5] 	180211
scalar geant_cost_network.node[5].content_store 	decision_yes[5] 	755
scalar geant_cost_network.node[5].content_store 	decision_no[5] 	177291
scalar geant_cost_network.node[5].content_store 	decision_ratio[5] 	0.0042404771800546
scalar geant_cost_network.node[5].content_store 	correction_factor[5] 	0.010788122829233
scalar geant_cost_network.node[5].content_store 	xi[5] 	0.25
scalar geant_cost_network.node[6].core_layer 	interests[6] 	99376
scalar geant_cost_network.node[6].core_layer 	data[6] 	84380
scalar geant_cost_network.node[6].content_store 	p_hit[6] 	0.15090162614716
scalar geant_cost_network.node[6].content_store 	hits[6] 	14996
scalar geant_cost_network.node[6].content_store 	misses[6] 	84380
scalar geant_cost_network.node[6].content_store 	decision_yes[6] 	267
scalar geant_cost_network.node[6].content_store 	decision_no[6] 	84113
scalar geant_cost_network.node[6].content_store 	decision_ratio[6] 	0.0031642569329225
scalar geant_cost_network.node[6].content_store 	correction_factor[6] 	0.010788122829233
scalar geant_cost_network.node[6].content_store 	xi[6] 	0.25
scalar geant_cost_network.node[7].core_layer 	interests[7] 	347650
scalar geant_cost_network.node[7].core_layer 	data[7] 	333364
scalar geant_cost_network.node[7].content_store 	p_hit[7] 	0.041072918164821
scalar geant_cost_network.node[7].content_store 	hits[7] 	14279
scalar geant_cost_network.node[7].content_store 	misses[7] 	333371
scalar geant_cost_network.node[7].content_store 	decision_yes[7] 	542
scalar geant_cost_network.node[7].content_store 	decision_no[7] 	332822
scalar geant_cost_network.node[7].content_store 	decision_ratio[7] 	0.0016258504217612
scalar geant_cost_network.node[7].content_store 	correction_factor[7] 	0.010788122829233
scalar geant_cost_network.node[7].content_store 	xi[7] 	0.25
scalar geant_cost_network.node[8].core_layer 	interests[8] 	285287
scalar geant_cost_network.node[8].core_layer 	data[8] 	253975
scalar geant_cost_network.node[8].content_store 	p_hit[8] 	0.10975614030783
scalar geant_cost_network.node[8].content_store 	hits[8] 	31312
scalar geant_cost_network.node[8].content_store 	misses[8] 	253975
scalar geant_cost_network.node[8].content_store 	decision_yes[8] 	1386
scalar geant_cost_network.node[8].content_store 	decision_no[8] 	252589
scalar geant_cost_network.node[8].content_store 	decision_ratio[8] 	0.005457230042327
scalar geant_cost_network.node[8].content_store 	correction_factor[8] 	0.010788122829233
scalar geant_cost_network.node[8].content_store 	xi[8] 	0.25
scalar geant_cost_network.node[9].core_layer 	interests[9] 	435624
scalar geant_cost_network.node[9].core_layer 	data[9] 	349869
scalar geant_cost_network.node[9].content_store 	p_hit[9] 	0.18965208528456
scalar geant_cost_network.node[9].content_store 	hits[9] 	82617
scalar geant_cost_network.node[9].content_store 	misses[9] 	353007
scalar geant_cost_network.node[9].content_store 	decision_yes[9] 	1848
scalar geant_cost_network.node[9].content_store 	decision_no[9] 	348020
scalar geant_cost_network.node[9].content_store 	decision_ratio[9] 	0.005281992065579
scalar geant_cost_network.node[9].content_store 	correction_factor[9] 	0.010788122829233
scalar geant_cost_network.node[9].content_store 	xi[9] 	0.25
scalar geant_cost_network.node[10].core_layer 	interests[10] 	190462
scalar geant_cost_network.node[10].core_layer 	data[10] 	175119
scalar geant_cost_network.node[10].content_store 	p_hit[10] 	0.072896430784093
scalar geant_cost_network.node[10].content_store 	hits[10] 	13884
scalar geant_cost_network.node[10].content_store 	misses[10] 	176578
scalar geant_cost_network.node[10].content_store 	decision_yes[10] 	777
scalar geant_cost_network.node[10].content_store 	decision_no[10] 	174342
scalar geant_cost_network.node[10].content_store 	decision_ratio[10] 	0.0044369828516609
scalar geant_cost_network.node[10].content_store 	correction_factor[10] 	0.010788122829233
scalar geant_cost_network.node[10].content_store 	xi[10] 	0.25
scalar geant_cost_network.node[11].core_layer 	interests[11] 	0
scalar geant_cost_network.node[11].core_layer 	data[11] 	0
scalar geant_cost_network.node[11].content_store 	p_hit[11] 	-nan
scalar geant_cost_network.node[11].content_store 	hits[11] 	0
scalar geant_cost_network.node[11].content_store 	misses[11] 	0
scalar geant_cost_network.node[11].content_store 	decision_yes[11] 	0
scalar geant_cost_network.node[11].content_store 	decision_no[11] 	0
scalar geant_cost_network.node[11].content_store 	decision_ratio[11] 	0
scalar geant_cost_network.node[11].content_store 	correction_factor[11] 	0.010788122829233
scalar geant_cost_network.node[11].content_store 	xi[11] 	0.25
scalar geant_cost_network.node[12].core_layer 	interests[12] 	325321
scalar geant_cost_network.node[12].core_layer 	data[12] 	304332
scalar geant_cost_network.node[12].content_store 	p_hit[12] 	0.051675114732833
scalar geant_cost_network.node[12].content_store 	hits[12] 	16811
scalar geant_cost_network.node[12].content_store 	misses[12] 	308510
scalar geant_cost_network.node[12].content_store 	decision_yes[12] 	1912
scalar geant_cost_network.node[12].content_store 	decision_no[12] 	302420
scalar geant_cost_network.node[12].content_store 	decision_ratio[12] 	0.006282612410131
scalar geant_cost_network.node[12].content_store 	correction_factor[12] 	0.010788122829233
scalar geant_cost_network.node[12].content_store 	xi[12] 	0.25
scalar geant_cost_network.node[13].core_layer 	interests[13] 	6324
scalar geant_cost_network.node[13].core_layer 	data[13] 	6324
scalar geant_cost_network.node[13].content_store 	p_hit[13] 	0
scalar geant_cost_network.node[13].content_store 	hits[13] 	0
scalar geant_cost_network.node[13].content_store 	misses[13] 	6324
scalar geant_cost_network.node[13].content_store 	decision_yes[13] 	0
scalar geant_cost_network.node[13].content_store 	decision_no[13] 	6324
scalar geant_cost_network.node[13].content_store 	decision_ratio[13] 	0
scalar geant_cost_network.node[13].content_store 	correction_factor[13] 	0.010788122829233
scalar geant_cost_network.node[13].content_store 	xi[13] 	0.25
scalar geant_cost_network.node[14].core_layer 	interests[14] 	75740
scalar geant_cost_network.node[14].core_layer 	data[14] 	65005
scalar geant_cost_network.node[14].content_store 	p_hit[14] 	0.14173488249274
scalar geant_cost_network.node[14].content_store 	hits[14] 	10735
scalar geant_cost_network.node[14].content_store 	misses[14] 	65005
scalar geant_cost_network.node[14].content_store 	decision_yes[14] 	506
scalar geant_cost_network.node[14].content_store 	decision_no[14] 	64499
scalar geant_cost_network.node[14].content_store 	decision_ratio[14] 	0.0077840166141066
scalar geant_cost_network.node[14].content_store 	correction_factor[14] 	0.010788122829233
scalar geant_cost_network.node[14].content_store 	xi[14] 	0.25
scalar geant_cost_network.node[15].core_layer 	interests[15] 	0
scalar geant_cost_network.node[15].core_layer 	data[15] 	0
scalar geant_cost_network.node[15].content_store 	p_hit[15] 	-nan
scalar geant_cost_network.node[15].content_store 	hits[15] 	0
scalar geant_cost_network.node[15].content_store 	misses[15] 	0
scalar geant_cost_network.node[15].content_store 	decision_yes[15] 	0
scalar geant_cost_network.node[15].content_store 	decision_no[15] 	0
scalar geant_cost_network.node[15].content_store 	decision_ratio[15] 	0
scalar geant_cost_network.node[15].content_store 	correction_factor[15] 	0.010788122829233
scalar geant_cost_network.node[15].content_store 	xi[15] 	0.25
scalar geant_cost_network.node[16].core_layer 	interests[16] 	0
scalar geant_cost_network.node[16].core_layer 	data[16] 	0
scalar geant_cost_network.node[16].content_store 	p_hit[16] 	-nan
scalar geant_cost_network.node[16].content_store 	hits[16] 	0
scalar geant_cost_network.node[16].content_store 	misses[16] 	0
scalar geant_cost_network.node[16].content_store 	decision_yes[16] 	0
scalar geant_cost_network.node[16].content_store 	decision_no[16] 	0
scalar geant_cost_network.node[16].content_store 	decision_ratio[16] 	0
scalar geant_cost_network.node[16].content_store 	correction_factor[16] 	0.010788122829233
scalar geant_cost_network.node[16].content_store 	xi[16] 	0.25
scalar geant_cost_network.node[17].core_layer 	interests[17] 	0
scalar geant_cost_network.node[17].core_layer 	data[17] 	0
scalar geant_cost_network.node[17].content_store 	p_hit[17] 	-nan
scalar geant_cost_network.node[17].content_store 	hits[17] 	0
scalar geant_cost_network.node[17].content_store 	misses[17] 	0
scalar geant_cost_network.node[17].content_store 	decision_yes[17] 	0
scalar geant_cost_network.node[17].content_store 	decision_no[17] 	0
scalar geant_cost_network.node[17].content_store 	decision_ratio[17] 	0
scalar geant_cost_network.node[17].content_store 	correction_factor[17] 	0.010788122829233
scalar geant_cost_network.node[17].content_store 	xi[17] 	0.25
scalar geant_cost_network.node[18].core_layer 	interests[18] 	138748
scalar geant_cost_network.node[18].core_layer 	data[18] 	133773
scalar geant_cost_network.node[18].content_store 	p_hit[18] 	0.035748263038026
scalar geant_cost_network.node[18].content_store 	hits[18] 	4960
scalar geant_cost_network.node[18].content_store 	misses[18] 	133788
scalar geant_cost_network.node[18].content_store 	decision_yes[18] 	302
scalar geant_cost_network.node[18].content_store 	decision_no[18] 	133470
scalar geant_cost_network.node[18].content_store 	decision_ratio[18] 	0.0022575725861914
scalar geant_cost_network.node[18].content_store 	correction_factor[18] 	0.010788122829233
scalar geant_cost_network.node[18].content_store 	xi[18] 	0.25
scalar geant_cost_network.node[19].core_layer 	interests[19] 	0
scalar geant_cost_network.node[19].core_layer 	data[19] 	0
scalar geant_cost_network.node[19].content_store 	p_hit[19] 	-nan
scalar geant_cost_network.node[19].content_store 	hits[19] 	0
scalar geant_cost_network.node[19].content_store 	misses[19] 	0
scalar geant_cost_network.node[19].content_store 	decision_yes[19] 	0
scalar geant_cost_network.node[19].content_store 	decision_no[19] 	0
scalar geant_cost_network.node[19].content_store 	decision_ratio[19] 	0
scalar geant_cost_network.node[19].content_store 	correction_factor[19] 	0.010788122829233
scalar geant_cost_network.node[19].content_store 	xi[19] 	0.25
scalar geant_cost_network.node[20].core_layer 	interests[20] 	200299
scalar geant_cost_network.node[20].core_layer 	data[20] 	163829
scalar geant_cost_network.node[20].content_store 	p_hit[20] 	0.17920209287116
scalar geant_cost_network.node[20].content_store 	hits[20] 	35894
scalar geant_cost_network.node[20].content_store 	misses[20] 	164405
scalar geant_cost_network.node[20].content_store 	decision_yes[20] 	848
scalar geant_cost_network.node[20].content_store 	decision_no[20] 	162981
scalar geant_cost_network.node[20].content_store 	decision_ratio[20] 	0.005176128768411
scalar geant_cost_network.node[20].content_store 	correction_factor[20] 	0.010788122829233
scalar geant_cost_network.node[20].content_store 	xi[20] 	0.25
scalar geant_cost_network.node[21].core_layer 	interests[21] 	216246
scalar geant_cost_network.node[21].core_layer 	data[21] 	135231
scalar geant_cost_network.node[21].content_store 	p_hit[21] 	0.37464276795871
scalar geant_cost_network.node[21].content_store 	hits[21] 	81015
scalar geant_cost_network.node[21].content_store 	misses[21] 	135231
scalar geant_cost_network.node[21].content_store 	decision_yes[21] 	2593
scalar geant_cost_network.node[21].content_store 	decision_no[21] 	132638
scalar geant_cost_network.node[21].content_store 	decision_ratio[21] 	0.019174597540505
scalar geant_cost_network.node[21].content_store 	correction_factor[21] 	0.010788122829233
scalar geant_cost_network.node[21].content_store 	xi[21] 	0.25
scalar geant_cost_network.node[22].core_layer 	interests[22] 	257097
scalar geant_cost_network.node[22].core_layer 	repo_load[22] 	257097
scalar geant_cost_network.node[22].core_layer 	data[22] 	0
scalar geant_cost_network.node[22].content_store 	p_hit[22] 	0
scalar geant_cost_network.node[22].content_store 	hits[22] 	0
scalar geant_cost_network.node[22].content_store 	misses[22] 	257097
scalar geant_cost_network.node[22].content_store 	decision_yes[22] 	0
scalar geant_cost_network.node[22].content_store 	decision_no[22] 	257097
scalar geant_cost_network.node[22].content_store 	decision_ratio[22] 	0
scalar geant_cost_network.node[23].core_layer 	interests[23] 	130843
scalar geant_cost_network.node[23].core_layer 	repo_load[23] 	130843
scalar geant_cost_network.node[23].core_layer 	data[23] 	0
scalar geant_cost_network.node[23].content_store 	p_hit[23] 	0
scalar geant_cost_network.node[23].content_store 	hits[23] 	0
scalar geant_cost_network.node[23].content_store 	misses[23] 	130843
scalar geant_cost_network.node[23].content_store 	decision_yes[23] 	0
scalar geant_cost_network.node[23].content_store 	decision_no[23] 	130843
scalar geant_cost_network.node[23].content_store 	decision_ratio[23] 	0
scalar geant_cost_network.node[24].core_layer 	interests[24] 	135231
scalar geant_cost_network.node[24].core_layer 	repo_load[24] 	135231
scalar geant_cost_network.node[24].core_layer 	data[24] 	0
scalar geant_cost_network.node[24].content_store 	p_hit[24] 	0
scalar geant_cost_network.node[24].content_store 	hits[24] 	0
scalar geant_cost_network.node[24].content_store 	misses[24] 	135231
scalar geant_cost_network.node[24].content_store 	decision_yes[24] 	0
scalar geant_cost_network.node[24].content_store 	decision_no[24] 	135231
scalar geant_cost_network.node[24].content_store 	decision_ratio[24] 	0
scalar geant_cost_network.client[5] 	hdistance[5] 	3.3713298207691
scalar geant_cost_network.client[5] 	downloads[5] 	177648
scalar geant_cost_network.client[5] 	avg_time[5] 	0.009939222292
scalar geant_cost_network.client[5] 	interests_sent[5] 	179797
scalar geant_cost_network.client[9] 	hdistance[9] 	3.3246626137438
scalar geant_cost_network.client[9] 	downloads[9] 	178801
scalar geant_cost_network.client[9] 	avg_time[9] 	0.005040520845
scalar geant_cost_network.client[9] 	interests_sent[9] 	179943
scalar geant_cost_network.client[10] 	hdistance[10] 	4.3023343036274
scalar geant_cost_network.client[10] 	downloads[10] 	178640
scalar geant_cost_network.client[10] 	avg_time[10] 	0.006964607008
scalar geant_cost_network.client[10] 	interests_sent[10] 	180099
scalar geant_cost_network.client[12] 	hdistance[12] 	3.593937155075
scalar geant_cost_network.client[12] 	downloads[12] 	178662
scalar geant_cost_network.client[12] 	avg_time[12] 	0.005918207642
scalar geant_cost_network.client[12] 	interests_sent[12] 	179684
scalar geant_cost_network.client[20] 	hdistance[20] 	3.6207055350881
scalar geant_cost_network.client[20] 	downloads[20] 	180232
scalar geant_cost_network.client[20] 	avg_time[20] 	0.007044287169
scalar geant_cost_network.client[20] 	interests_sent[20] 	180808
