version 2
run General-1378-20140502-03:41:16-10294
attr D costprob0.005
attr F nrr
attr R lru
attr a 0.8
attr configname General
attr csize 1e3
attr ctlg 1e5
attr datetime 20140502-03:41:16
attr experiment General
attr inifile omnetpp.ini
attr iterationvars "$net=three_caches_scenario_3_links, $rep=3, $priceratiovalue=2, $weights=0.7_0.15_0.15, $a=0.8, $ctlg=1e5, $F=nrr, $ttl=1000, $D=costprob0.005, $xi=1, $R=lru, $csize=1e3"
attr iterationvars2 "$net=three_caches_scenario_3_links, $rep=3, $priceratiovalue=2, $weights=0.7_0.15_0.15, $a=0.8, $ctlg=1e5, $F=nrr, $ttl=1000, $D=costprob0.005, $xi=1, $R=lru, $csize=1e3, $repetition=0"
attr measurement "$net=three_caches_scenario_3_links, $rep=3, $priceratiovalue=2, $weights=0.7_0.15_0.15, $a=0.8, $ctlg=1e5, $F=nrr, $ttl=1000, $D=costprob0.005, $xi=1, $R=lru, $csize=1e3"
attr net three_caches_scenario_3_links
attr network networks.${net=three_caches_scenario_3_links}_network
attr priceratiovalue 2
attr processid 10294
attr rep 3
attr repetition 0
attr replication #0
attr resultdir results
attr runnumber 1378
attr seedset 3
attr ttl 1000
attr weights 0.7_0.15_0.15
attr xi 1

scalar . 	a 	0.8
scalar . 	csize 	1e3
scalar . 	ctlg 	1e5
scalar . 	priceratiovalue 	2
scalar . 	rep 	3
scalar . 	ttl 	1000
scalar . 	xi 	1
scalar three_caches_scenario_3_links_network.content_distribution 	repo-0 	4
scalar three_caches_scenario_3_links_network.content_distribution 	repo-1 	5
scalar three_caches_scenario_3_links_network.content_distribution 	repo-2 	6
scalar three_caches_scenario_3_links_network.content_distribution 	client-0 	0
scalar three_caches_scenario_3_links_network.content_distribution 	repo-0_card 	69828
scalar three_caches_scenario_3_links_network.content_distribution 	repo-1_card 	15121
scalar three_caches_scenario_3_links_network.content_distribution 	repo-2_card 	15051
scalar three_caches_scenario_3_links_network.statistics 	p_hit 	0.035253566976306
scalar three_caches_scenario_3_links_network.statistics 	interests 	73111.142857143
scalar three_caches_scenario_3_links_network.statistics 	data 	47439.571428571
scalar three_caches_scenario_3_links_network.statistics 	hdistance 	2.0370726929733
scalar three_caches_scenario_3_links_network.statistics 	avg_time 	0
scalar three_caches_scenario_3_links_network.statistics 	downloads 	179701
scalar three_caches_scenario_3_links_network.statistics 	total_cost 	50410
scalar three_caches_scenario_3_links_network.statistics 	total_replicas 	100000
scalar three_caches_scenario_3_links_network.statistics 	interests_sent 	179701
scalar three_caches_scenario_3_links_network.node[0].core_layer 	interests[0] 	179701
scalar three_caches_scenario_3_links_network.node[0].core_layer 	data[0] 	170418
scalar three_caches_scenario_3_links_network.node[0].core_layer 	repo_int[0] 	161659
scalar three_caches_scenario_3_links_network.node[0].content_store 	p_hit[0] 	0.051658031953078
scalar three_caches_scenario_3_links_network.node[0].content_store 	hits[0] 	9283
scalar three_caches_scenario_3_links_network.node[0].content_store 	misses[0] 	170418
scalar three_caches_scenario_3_links_network.node[0].content_store 	decision_yes[0] 	592
scalar three_caches_scenario_3_links_network.node[0].content_store 	decision_no[0] 	169826
scalar three_caches_scenario_3_links_network.node[1].core_layer 	interests[1] 	127672
scalar three_caches_scenario_3_links_network.node[1].core_layer 	data[1] 	127672
scalar three_caches_scenario_3_links_network.node[1].content_store 	p_hit[1] 	0
scalar three_caches_scenario_3_links_network.node[1].content_store 	hits[1] 	0
scalar three_caches_scenario_3_links_network.node[1].content_store 	misses[1] 	127672
scalar three_caches_scenario_3_links_network.node[1].content_store 	decision_yes[1] 	0
scalar three_caches_scenario_3_links_network.node[1].content_store 	decision_no[1] 	127672
scalar three_caches_scenario_3_links_network.node[2].core_layer 	interests[2] 	21654
scalar three_caches_scenario_3_links_network.node[2].core_layer 	data[2] 	17564
scalar three_caches_scenario_3_links_network.node[2].content_store 	p_hit[2] 	0.18887965272005
scalar three_caches_scenario_3_links_network.node[2].content_store 	hits[2] 	4090
scalar three_caches_scenario_3_links_network.node[2].content_store 	misses[2] 	17564
scalar three_caches_scenario_3_links_network.node[2].content_store 	decision_yes[2] 	205
scalar three_caches_scenario_3_links_network.node[2].content_store 	decision_no[2] 	17359
scalar three_caches_scenario_3_links_network.node[3].core_layer 	interests[3] 	21092
scalar three_caches_scenario_3_links_network.node[3].core_layer 	data[3] 	16423
scalar three_caches_scenario_3_links_network.node[3].content_store 	p_hit[3] 	0.2213635501612
scalar three_caches_scenario_3_links_network.node[3].content_store 	hits[3] 	4669
scalar three_caches_scenario_3_links_network.node[3].content_store 	misses[3] 	16423
scalar three_caches_scenario_3_links_network.node[3].content_store 	decision_yes[3] 	403
scalar three_caches_scenario_3_links_network.node[3].content_store 	decision_no[3] 	16020
scalar three_caches_scenario_3_links_network.node[4].core_layer 	interests[4] 	127672
scalar three_caches_scenario_3_links_network.node[4].core_layer 	repo_load[4] 	127672
scalar three_caches_scenario_3_links_network.node[4].core_layer 	data[4] 	0
scalar three_caches_scenario_3_links_network.node[4].content_store 	p_hit[4] 	0
scalar three_caches_scenario_3_links_network.node[4].content_store 	hits[4] 	0
scalar three_caches_scenario_3_links_network.node[4].content_store 	misses[4] 	127672
scalar three_caches_scenario_3_links_network.node[4].content_store 	decision_yes[4] 	0
scalar three_caches_scenario_3_links_network.node[4].content_store 	decision_no[4] 	127672
scalar three_caches_scenario_3_links_network.node[5].core_layer 	interests[5] 	17564
scalar three_caches_scenario_3_links_network.node[5].core_layer 	repo_load[5] 	17564
scalar three_caches_scenario_3_links_network.node[5].core_layer 	data[5] 	0
scalar three_caches_scenario_3_links_network.node[5].content_store 	p_hit[5] 	0
scalar three_caches_scenario_3_links_network.node[5].content_store 	hits[5] 	0
scalar three_caches_scenario_3_links_network.node[5].content_store 	misses[5] 	17564
scalar three_caches_scenario_3_links_network.node[5].content_store 	decision_yes[5] 	0
scalar three_caches_scenario_3_links_network.node[5].content_store 	decision_no[5] 	17564
scalar three_caches_scenario_3_links_network.node[6].core_layer 	interests[6] 	16423
scalar three_caches_scenario_3_links_network.node[6].core_layer 	repo_load[6] 	16423
scalar three_caches_scenario_3_links_network.node[6].core_layer 	data[6] 	0
scalar three_caches_scenario_3_links_network.node[6].content_store 	p_hit[6] 	0
scalar three_caches_scenario_3_links_network.node[6].content_store 	hits[6] 	0
scalar three_caches_scenario_3_links_network.node[6].content_store 	misses[6] 	16423
scalar three_caches_scenario_3_links_network.node[6].content_store 	decision_yes[6] 	0
scalar three_caches_scenario_3_links_network.node[6].content_store 	decision_no[6] 	16423
scalar three_caches_scenario_3_links_network.client[0] 	hdistance[0] 	2.0370726929733
scalar three_caches_scenario_3_links_network.client[0] 	downloads[0] 	179701
scalar three_caches_scenario_3_links_network.client[0] 	avg_time[0] 	0
scalar three_caches_scenario_3_links_network.client[0] 	interests_sent[0] 	179701
