version 2
run General-1666-20140422-20:14:09-28538
attr D costprob0.1
attr F nrr
attr R lru
attr a 1.2
attr configname General
attr csize 10
attr ctlg 10^3
attr datetime 20140422-20:14:09
attr experiment General
attr inifile omnetpp.ini
attr iterationvars "$net=simple_scenario, $rep=14, $priceratiovalue=9, $a=1.2, $ctlg=10^3, $F=nrr, $ttl=1000, $D=costprob0.1, $R=lru, $csize=10"
attr iterationvars2 "$net=simple_scenario, $rep=14, $priceratiovalue=9, $a=1.2, $ctlg=10^3, $F=nrr, $ttl=1000, $D=costprob0.1, $R=lru, $csize=10, $repetition=0"
attr measurement "$net=simple_scenario, $rep=14, $priceratiovalue=9, $a=1.2, $ctlg=10^3, $F=nrr, $ttl=1000, $D=costprob0.1, $R=lru, $csize=10"
attr net simple_scenario
attr network networks.${net=simple_scenario}_network
attr priceratiovalue 9
attr processid 28538
attr rep 14
attr repetition 0
attr replication #0
attr resultdir results
attr runnumber 1666
attr seedset 14
attr ttl 1000

scalar . 	a 	1.2
scalar . 	csize 	10
scalar . 	priceratiovalue 	9
scalar . 	rep 	14
scalar . 	ttl 	1000
scalar simple_scenario_network.content_distribution 	repo-0 	3
scalar simple_scenario_network.content_distribution 	repo-1 	4
scalar simple_scenario_network.content_distribution 	client-0 	0
scalar simple_scenario_network.content_distribution 	repo-0_card 	487
scalar simple_scenario_network.content_distribution 	repo-1_card 	513
scalar simple_scenario_network.statistics 	p_hit 	0.27788597497532
scalar simple_scenario_network.statistics 	interests 	82462.6
scalar simple_scenario_network.statistics 	data 	46399
scalar simple_scenario_network.statistics 	hdistance 	1.6511773644339
scalar simple_scenario_network.statistics 	avg_time 	0.001985193911
scalar simple_scenario_network.statistics 	downloads 	180318
scalar simple_scenario_network.statistics 	total_cost 	32366
scalar simple_scenario_network.node[0].core_layer 	interests[0] 	180318
scalar simple_scenario_network.node[0].core_layer 	data[0] 	166253
scalar simple_scenario_network.node[0].core_layer 	repo_int[0] 	65742
scalar simple_scenario_network.node[0].content_store 	p_hit[0] 	0.078001086968578
scalar simple_scenario_network.node[0].content_store 	hits[0] 	14065
scalar simple_scenario_network.node[0].content_store 	misses[0] 	166253
scalar simple_scenario_network.node[1].core_layer 	interests[1] 	81027
scalar simple_scenario_network.node[1].core_layer 	data[1] 	33501
scalar simple_scenario_network.node[1].content_store 	p_hit[1] 	0.58654522566552
scalar simple_scenario_network.node[1].content_store 	hits[1] 	47526
scalar simple_scenario_network.node[1].content_store 	misses[1] 	33501
scalar simple_scenario_network.node[2].core_layer 	interests[2] 	85226
scalar simple_scenario_network.node[2].core_layer 	data[2] 	32241
scalar simple_scenario_network.node[2].content_store 	p_hit[2] 	0.62169995071926
scalar simple_scenario_network.node[2].content_store 	hits[2] 	52985
scalar simple_scenario_network.node[2].content_store 	misses[2] 	32241
scalar simple_scenario_network.node[3].core_layer 	interests[3] 	33501
scalar simple_scenario_network.node[3].core_layer 	repo_load[3] 	33501
scalar simple_scenario_network.node[3].core_layer 	data[3] 	0
scalar simple_scenario_network.node[3].content_store 	p_hit[3] 	0
scalar simple_scenario_network.node[3].content_store 	hits[3] 	0
scalar simple_scenario_network.node[3].content_store 	misses[3] 	33501
scalar simple_scenario_network.node[4].core_layer 	interests[4] 	32241
scalar simple_scenario_network.node[4].core_layer 	repo_load[4] 	32241
scalar simple_scenario_network.node[4].core_layer 	data[4] 	0
scalar simple_scenario_network.node[4].content_store 	p_hit[4] 	0
scalar simple_scenario_network.node[4].content_store 	hits[4] 	0
scalar simple_scenario_network.node[4].content_store 	misses[4] 	32241
scalar simple_scenario_network.client[0] 	hdistance[0] 	1.6511773644339
scalar simple_scenario_network.client[0] 	downloads[0] 	180318
scalar simple_scenario_network.client[0] 	avg_time[0] 	0.001985193911
