version 2
run General-21-20140627-18:45:10-22674
attr D lce
attr F spr
attr R lru
attr a 1
attr configname General
attr csize 1e3
attr ctlg 1e5
attr datetime 20140627-18:45:10
attr experiment General
attr inifile omnetpp.ini
attr iterationvars "$net=geant_cost, $rep=16, $priceratiovalue=10, $weights=0.333_0.333_0.334, $lambda=100, $a=1, $ctlg=1e5, $F=spr, $ttl=1000, $D=lce, $xi=1, $R=lru, $csize=1e3, $pricebits=0, $window=60, $variance=0.05, $mytime=1800"
attr iterationvars2 "$net=geant_cost, $rep=16, $priceratiovalue=10, $weights=0.333_0.333_0.334, $lambda=100, $a=1, $ctlg=1e5, $F=spr, $ttl=1000, $D=lce, $xi=1, $R=lru, $csize=1e3, $pricebits=0, $window=60, $variance=0.05, $mytime=1800, $repetition=0"
attr lambda 100
attr measurement "$net=geant_cost, $rep=16, $priceratiovalue=10, $weights=0.333_0.333_0.334, $lambda=100, $a=1, $ctlg=1e5, $F=spr, $ttl=1000, $D=lce, $xi=1, $R=lru, $csize=1e3, $pricebits=0, $window=60, $variance=0.05, $mytime=1800"
attr mytime 1800
attr net geant_cost
attr network "networks.${net=geant_cost, abilene_cost}_network"
attr pricebits 0
attr priceratiovalue 10
attr processid 22674
attr rep 16
attr repetition 0
attr replication #0
attr resultdir results
attr runnumber 21
attr seedset 16
attr ttl 1000
attr variance 0.05
attr weights 0.333_0.333_0.334
attr window 60
attr xi 1

scalar . 	a 	1
scalar . 	csize 	1e3
scalar . 	ctlg 	1e5
scalar . 	lambda 	100
scalar . 	mytime 	1800
scalar . 	pricebits 	0
scalar . 	priceratiovalue 	10
scalar . 	rep 	16
scalar . 	ttl 	1000
scalar . 	variance 	0.05
scalar . 	window 	60
scalar . 	xi 	1
scalar geant_cost_network.content_distribution 	repo-0 	22
scalar geant_cost_network.content_distribution 	repo-1 	23
scalar geant_cost_network.content_distribution 	repo-2 	24
scalar geant_cost_network.content_distribution 	client-0 	20
scalar geant_cost_network.content_distribution 	client-1 	10
scalar geant_cost_network.content_distribution 	client-2 	12
scalar geant_cost_network.content_distribution 	client-3 	9
scalar geant_cost_network.content_distribution 	client-4 	5
scalar geant_cost_network.content_distribution 	repo-0_card 	33302
scalar geant_cost_network.content_distribution 	repo-1_card 	33208
scalar geant_cost_network.content_distribution 	repo-2_card 	33490
scalar geant_cost_network.statistics 	repo_popularity[0] 	0.38028263519115
scalar geant_cost_network.statistics 	repo_popularity[1] 	0.2853641311191
scalar geant_cost_network.statistics 	repo_popularity[2] 	0.33435323368975
scalar geant_cost_network.statistics 	stabilization_time 	36060
scalar geant_cost_network.node[7].face$o[4].channel 	price[7] 	0
scalar geant_cost_network.node[7].face$o[4].channel 	represented_price[7] 	0
scalar geant_cost_network.node[8].face$o[3].channel 	price[8] 	0
scalar geant_cost_network.node[8].face$o[3].channel 	represented_price[8] 	0
scalar geant_cost_network.node[21].face$o[5].channel 	price[21] 	0
scalar geant_cost_network.node[21].face$o[5].channel 	represented_price[21] 	0
scalar geant_cost_network.node[22].face$o[1].channel 	price[22] 	0
scalar geant_cost_network.node[22].face$o[1].channel 	represented_price[22] 	0
scalar geant_cost_network.node[23].face$o[1].channel 	price[23] 	1
scalar geant_cost_network.node[23].face$o[1].channel 	represented_price[23] 	1
scalar geant_cost_network.node[24].face$o[1].channel 	price[24] 	10
scalar geant_cost_network.node[24].face$o[1].channel 	represented_price[24] 	10
scalar geant_cost_network.statistics 	p_hit 	0.079186193380957
scalar geant_cost_network.statistics 	interests 	134465.36
scalar geant_cost_network.statistics 	data 	98501.76
scalar geant_cost_network.statistics 	hdistance 	3.4474891589894
scalar geant_cost_network.statistics 	avg_time 	0.005154076362
scalar geant_cost_network.statistics 	downloads 	898144
scalar geant_cost_network.statistics 	total_cost 	2376889
scalar geant_cost_network.statistics 	total_replicas 	100000
scalar geant_cost_network.statistics 	inner_hit 	0.29684994833791
scalar geant_cost_network.statistics 	interests_sent 	899091
scalar geant_cost_network.node[0].core_layer 	interests[0] 	0
scalar geant_cost_network.node[0].core_layer 	data[0] 	0
scalar geant_cost_network.node[0].core_layer 	repo_int[0] 	631530
scalar geant_cost_network.node[0].content_store 	p_hit[0] 	-nan
scalar geant_cost_network.node[0].content_store 	hits[0] 	0
scalar geant_cost_network.node[0].content_store 	misses[0] 	0
scalar geant_cost_network.node[0].content_store 	decision_yes[0] 	0
scalar geant_cost_network.node[0].content_store 	decision_no[0] 	0
scalar geant_cost_network.node[0].content_store 	decision_ratio[0] 	0
scalar geant_cost_network.node[1].core_layer 	interests[1] 	0
scalar geant_cost_network.node[1].core_layer 	data[1] 	0
scalar geant_cost_network.node[1].content_store 	p_hit[1] 	-nan
scalar geant_cost_network.node[1].content_store 	hits[1] 	0
scalar geant_cost_network.node[1].content_store 	misses[1] 	0
scalar geant_cost_network.node[1].content_store 	decision_yes[1] 	0
scalar geant_cost_network.node[1].content_store 	decision_no[1] 	0
scalar geant_cost_network.node[1].content_store 	decision_ratio[1] 	0
scalar geant_cost_network.node[2].core_layer 	interests[2] 	0
scalar geant_cost_network.node[2].core_layer 	data[2] 	0
scalar geant_cost_network.node[2].content_store 	p_hit[2] 	-nan
scalar geant_cost_network.node[2].content_store 	hits[2] 	0
scalar geant_cost_network.node[2].content_store 	misses[2] 	0
scalar geant_cost_network.node[2].content_store 	decision_yes[2] 	0
scalar geant_cost_network.node[2].content_store 	decision_no[2] 	0
scalar geant_cost_network.node[2].content_store 	decision_ratio[2] 	0
scalar geant_cost_network.node[3].core_layer 	interests[3] 	191745
scalar geant_cost_network.node[3].core_layer 	data[3] 	187324
scalar geant_cost_network.node[3].content_store 	p_hit[3] 	0.023061879058124
scalar geant_cost_network.node[3].content_store 	hits[3] 	4422
scalar geant_cost_network.node[3].content_store 	misses[3] 	187323
scalar geant_cost_network.node[3].content_store 	decision_yes[3] 	187324
scalar geant_cost_network.node[3].content_store 	decision_no[3] 	0
scalar geant_cost_network.node[3].content_store 	decision_ratio[3] 	1
scalar geant_cost_network.node[4].core_layer 	interests[4] 	273971
scalar geant_cost_network.node[4].core_layer 	data[4] 	271420
scalar geant_cost_network.node[4].content_store 	p_hit[4] 	0.0092455040861989
scalar geant_cost_network.node[4].content_store 	hits[4] 	2533
scalar geant_cost_network.node[4].content_store 	misses[4] 	271438
scalar geant_cost_network.node[4].content_store 	decision_yes[4] 	271420
scalar geant_cost_network.node[4].content_store 	decision_no[4] 	0
scalar geant_cost_network.node[4].content_store 	decision_ratio[4] 	1
scalar geant_cost_network.node[5].core_layer 	interests[5] 	179836
scalar geant_cost_network.node[5].core_layer 	data[5] 	140319
scalar geant_cost_network.node[5].content_store 	p_hit[5] 	0.21808203029427
scalar geant_cost_network.node[5].content_store 	hits[5] 	39219
scalar geant_cost_network.node[5].content_store 	misses[5] 	140617
scalar geant_cost_network.node[5].content_store 	decision_yes[5] 	140319
scalar geant_cost_network.node[5].content_store 	decision_no[5] 	0
scalar geant_cost_network.node[5].content_store 	decision_ratio[5] 	1
scalar geant_cost_network.node[6].core_layer 	interests[6] 	88977
scalar geant_cost_network.node[6].core_layer 	data[6] 	86172
scalar geant_cost_network.node[6].content_store 	p_hit[6] 	0.031525000842914
scalar geant_cost_network.node[6].content_store 	hits[6] 	2805
scalar geant_cost_network.node[6].content_store 	misses[6] 	86172
scalar geant_cost_network.node[6].content_store 	decision_yes[6] 	86172
scalar geant_cost_network.node[6].content_store 	decision_no[6] 	0
scalar geant_cost_network.node[6].content_store 	decision_ratio[6] 	1
scalar geant_cost_network.node[7].core_layer 	interests[7] 	312053
scalar geant_cost_network.node[7].core_layer 	data[7] 	295096
scalar geant_cost_network.node[7].content_store 	p_hit[7] 	0.054304877697058
scalar geant_cost_network.node[7].content_store 	hits[7] 	16946
scalar geant_cost_network.node[7].content_store 	misses[7] 	295107
scalar geant_cost_network.node[7].content_store 	decision_yes[7] 	295096
scalar geant_cost_network.node[7].content_store 	decision_no[7] 	0
scalar geant_cost_network.node[7].content_store 	decision_ratio[7] 	1
scalar geant_cost_network.node[8].core_layer 	interests[8] 	303118
scalar geant_cost_network.node[8].core_layer 	data[8] 	294744
scalar geant_cost_network.node[8].content_store 	p_hit[8] 	0.02762620497628
scalar geant_cost_network.node[8].content_store 	hits[8] 	8374
scalar geant_cost_network.node[8].content_store 	misses[8] 	294744
scalar geant_cost_network.node[8].content_store 	decision_yes[8] 	294744
scalar geant_cost_network.node[8].content_store 	decision_no[8] 	0
scalar geant_cost_network.node[8].content_store 	decision_ratio[8] 	1
scalar geant_cost_network.node[9].core_layer 	interests[9] 	364592
scalar geant_cost_network.node[9].core_layer 	data[9] 	322134
scalar geant_cost_network.node[9].content_store 	p_hit[9] 	0.11549896871023
scalar geant_cost_network.node[9].content_store 	hits[9] 	42110
scalar geant_cost_network.node[9].content_store 	misses[9] 	322482
scalar geant_cost_network.node[9].content_store 	decision_yes[9] 	322134
scalar geant_cost_network.node[9].content_store 	decision_no[9] 	0
scalar geant_cost_network.node[9].content_store 	decision_ratio[9] 	1
scalar geant_cost_network.node[10].core_layer 	interests[10] 	178928
scalar geant_cost_network.node[10].core_layer 	data[10] 	139594
scalar geant_cost_network.node[10].content_store 	p_hit[10] 	0.21913842439417
scalar geant_cost_network.node[10].content_store 	hits[10] 	39210
scalar geant_cost_network.node[10].content_store 	misses[10] 	139718
scalar geant_cost_network.node[10].content_store 	decision_yes[10] 	139594
scalar geant_cost_network.node[10].content_store 	decision_no[10] 	0
scalar geant_cost_network.node[10].content_store 	decision_ratio[10] 	1
scalar geant_cost_network.node[11].core_layer 	interests[11] 	0
scalar geant_cost_network.node[11].core_layer 	data[11] 	0
scalar geant_cost_network.node[11].content_store 	p_hit[11] 	-nan
scalar geant_cost_network.node[11].content_store 	hits[11] 	0
scalar geant_cost_network.node[11].content_store 	misses[11] 	0
scalar geant_cost_network.node[11].content_store 	decision_yes[11] 	0
scalar geant_cost_network.node[11].content_store 	decision_no[11] 	0
scalar geant_cost_network.node[11].content_store 	decision_ratio[11] 	0
scalar geant_cost_network.node[12].core_layer 	interests[12] 	281455
scalar geant_cost_network.node[12].core_layer 	data[12] 	236554
scalar geant_cost_network.node[12].content_store 	p_hit[12] 	0.1580146026896
scalar geant_cost_network.node[12].content_store 	hits[12] 	44474
scalar geant_cost_network.node[12].content_store 	misses[12] 	236981
scalar geant_cost_network.node[12].content_store 	decision_yes[12] 	236554
scalar geant_cost_network.node[12].content_store 	decision_no[12] 	0
scalar geant_cost_network.node[12].content_store 	decision_ratio[12] 	1
scalar geant_cost_network.node[13].core_layer 	interests[13] 	0
scalar geant_cost_network.node[13].core_layer 	data[13] 	0
scalar geant_cost_network.node[13].content_store 	p_hit[13] 	-nan
scalar geant_cost_network.node[13].content_store 	hits[13] 	0
scalar geant_cost_network.node[13].content_store 	misses[13] 	0
scalar geant_cost_network.node[13].content_store 	decision_yes[13] 	0
scalar geant_cost_network.node[13].content_store 	decision_no[13] 	0
scalar geant_cost_network.node[13].content_store 	decision_ratio[13] 	0
scalar geant_cost_network.node[14].core_layer 	interests[14] 	51342
scalar geant_cost_network.node[14].core_layer 	data[14] 	44275
scalar geant_cost_network.node[14].content_store 	p_hit[14] 	0.1376455923026
scalar geant_cost_network.node[14].content_store 	hits[14] 	7067
scalar geant_cost_network.node[14].content_store 	misses[14] 	44275
scalar geant_cost_network.node[14].content_store 	decision_yes[14] 	44275
scalar geant_cost_network.node[14].content_store 	decision_no[14] 	0
scalar geant_cost_network.node[14].content_store 	decision_ratio[14] 	1
scalar geant_cost_network.node[15].core_layer 	interests[15] 	0
scalar geant_cost_network.node[15].core_layer 	data[15] 	0
scalar geant_cost_network.node[15].content_store 	p_hit[15] 	-nan
scalar geant_cost_network.node[15].content_store 	hits[15] 	0
scalar geant_cost_network.node[15].content_store 	misses[15] 	0
scalar geant_cost_network.node[15].content_store 	decision_yes[15] 	0
scalar geant_cost_network.node[15].content_store 	decision_no[15] 	0
scalar geant_cost_network.node[15].content_store 	decision_ratio[15] 	0
scalar geant_cost_network.node[16].core_layer 	interests[16] 	0
scalar geant_cost_network.node[16].core_layer 	data[16] 	0
scalar geant_cost_network.node[16].content_store 	p_hit[16] 	-nan
scalar geant_cost_network.node[16].content_store 	hits[16] 	0
scalar geant_cost_network.node[16].content_store 	misses[16] 	0
scalar geant_cost_network.node[16].content_store 	decision_yes[16] 	0
scalar geant_cost_network.node[16].content_store 	decision_no[16] 	0
scalar geant_cost_network.node[16].content_store 	decision_ratio[16] 	0
scalar geant_cost_network.node[17].core_layer 	interests[17] 	0
scalar geant_cost_network.node[17].core_layer 	data[17] 	0
scalar geant_cost_network.node[17].content_store 	p_hit[17] 	-nan
scalar geant_cost_network.node[17].content_store 	hits[17] 	0
scalar geant_cost_network.node[17].content_store 	misses[17] 	0
scalar geant_cost_network.node[17].content_store 	decision_yes[17] 	0
scalar geant_cost_network.node[17].content_store 	decision_no[17] 	0
scalar geant_cost_network.node[17].content_store 	decision_ratio[17] 	0
scalar geant_cost_network.node[18].core_layer 	interests[18] 	89408
scalar geant_cost_network.node[18].core_layer 	data[18] 	86647
scalar geant_cost_network.node[18].content_store 	p_hit[18] 	0.030869720830351
scalar geant_cost_network.node[18].content_store 	hits[18] 	2760
scalar geant_cost_network.node[18].content_store 	misses[18] 	86648
scalar geant_cost_network.node[18].content_store 	decision_yes[18] 	86647
scalar geant_cost_network.node[18].content_store 	decision_no[18] 	0
scalar geant_cost_network.node[18].content_store 	decision_ratio[18] 	1
scalar geant_cost_network.node[19].core_layer 	interests[19] 	0
scalar geant_cost_network.node[19].core_layer 	data[19] 	0
scalar geant_cost_network.node[19].content_store 	p_hit[19] 	-nan
scalar geant_cost_network.node[19].content_store 	hits[19] 	0
scalar geant_cost_network.node[19].content_store 	misses[19] 	0
scalar geant_cost_network.node[19].content_store 	decision_yes[19] 	0
scalar geant_cost_network.node[19].content_store 	decision_no[19] 	0
scalar geant_cost_network.node[19].content_store 	decision_ratio[19] 	0
scalar geant_cost_network.node[20].core_layer 	interests[20] 	180265
scalar geant_cost_network.node[20].core_layer 	data[20] 	140722
scalar geant_cost_network.node[20].content_store 	p_hit[20] 	0.21858929908745
scalar geant_cost_network.node[20].content_store 	hits[20] 	39404
scalar geant_cost_network.node[20].content_store 	misses[20] 	140861
scalar geant_cost_network.node[20].content_store 	decision_yes[20] 	140722
scalar geant_cost_network.node[20].content_store 	decision_no[20] 	0
scalar geant_cost_network.node[20].content_store 	decision_ratio[20] 	1
scalar geant_cost_network.node[21].core_layer 	interests[21] 	234414
scalar geant_cost_network.node[21].core_layer 	data[21] 	217543
scalar geant_cost_network.node[21].content_store 	p_hit[21] 	0.071970957366028
scalar geant_cost_network.node[21].content_store 	hits[21] 	16871
scalar geant_cost_network.node[21].content_store 	misses[21] 	217543
scalar geant_cost_network.node[21].content_store 	decision_yes[21] 	217543
scalar geant_cost_network.node[21].content_store 	decision_no[21] 	0
scalar geant_cost_network.node[21].content_store 	decision_ratio[21] 	1
scalar geant_cost_network.node[22].core_layer 	interests[22] 	212528
scalar geant_cost_network.node[22].core_layer 	repo_load[22] 	212528
scalar geant_cost_network.node[22].core_layer 	data[22] 	0
scalar geant_cost_network.node[22].content_store 	p_hit[22] 	0
scalar geant_cost_network.node[22].content_store 	hits[22] 	0
scalar geant_cost_network.node[22].content_store 	misses[22] 	212528
scalar geant_cost_network.node[22].content_store 	decision_yes[22] 	0
scalar geant_cost_network.node[22].content_store 	decision_no[22] 	212528
scalar geant_cost_network.node[22].content_store 	decision_ratio[22] 	0
scalar geant_cost_network.node[23].core_layer 	interests[23] 	201459
scalar geant_cost_network.node[23].core_layer 	repo_load[23] 	201459
scalar geant_cost_network.node[23].core_layer 	data[23] 	0
scalar geant_cost_network.node[23].content_store 	p_hit[23] 	0
scalar geant_cost_network.node[23].content_store 	hits[23] 	0
scalar geant_cost_network.node[23].content_store 	misses[23] 	201459
scalar geant_cost_network.node[23].content_store 	decision_yes[23] 	0
scalar geant_cost_network.node[23].content_store 	decision_no[23] 	201459
scalar geant_cost_network.node[23].content_store 	decision_ratio[23] 	0
scalar geant_cost_network.node[24].core_layer 	interests[24] 	217543
scalar geant_cost_network.node[24].core_layer 	repo_load[24] 	217543
scalar geant_cost_network.node[24].core_layer 	data[24] 	0
scalar geant_cost_network.node[24].content_store 	p_hit[24] 	0
scalar geant_cost_network.node[24].content_store 	hits[24] 	0
scalar geant_cost_network.node[24].content_store 	misses[24] 	217543
scalar geant_cost_network.node[24].content_store 	decision_yes[24] 	0
scalar geant_cost_network.node[24].content_store 	decision_no[24] 	217543
scalar geant_cost_network.node[24].content_store 	decision_ratio[24] 	0
scalar geant_cost_network.client[5] 	hdistance[5] 	3.0859372389132
scalar geant_cost_network.client[5] 	downloads[5] 	179538
scalar geant_cost_network.client[5] 	avg_time[5] 	0.008098716828
scalar geant_cost_network.client[5] 	interests_sent[5] 	179836
scalar geant_cost_network.client[9] 	hdistance[9] 	3.3463621667565
scalar geant_cost_network.client[9] 	downloads[9] 	180011
scalar geant_cost_network.client[9] 	avg_time[9] 	0.003469017095
scalar geant_cost_network.client[9] 	interests_sent[9] 	180191
scalar geant_cost_network.client[10] 	hdistance[10] 	3.9190006934968
scalar geant_cost_network.client[10] 	downloads[10] 	178804
scalar geant_cost_network.client[10] 	avg_time[10] 	0.00480747418
scalar geant_cost_network.client[10] 	interests_sent[10] 	178928
scalar geant_cost_network.client[12] 	hdistance[12] 	3.520346199872
scalar geant_cost_network.client[12] 	downloads[12] 	179665
scalar geant_cost_network.client[12] 	avg_time[12] 	0.004036786358
scalar geant_cost_network.client[12] 	interests_sent[12] 	179871
scalar geant_cost_network.client[20] 	hdistance[20] 	3.3657994959084
scalar geant_cost_network.client[20] 	downloads[20] 	180126
scalar geant_cost_network.client[20] 	avg_time[20] 	0.005358387349
scalar geant_cost_network.client[20] 	interests_sent[20] 	180265
