version 2
run General-5-20140626-16:20:36-10613
attr D lce
attr F spr
attr R lru
attr a 1
attr configname General
attr csize 1e3
attr ctlg 1e5
attr datetime 20140626-16:20:36
attr experiment General
attr inifile omnetpp.ini
attr iterationvars "$net=geant_cost, $rep=4, $priceratiovalue=10, $weights=0.333_0.333_0.334, $lambda=100, $a=1, $ctlg=1e5, $F=spr, $ttl=1000, $D=lce, $xi=1, $R=lru, $csize=1e3, $pricebits=0, $mytime=1800"
attr iterationvars2 "$net=geant_cost, $rep=4, $priceratiovalue=10, $weights=0.333_0.333_0.334, $lambda=100, $a=1, $ctlg=1e5, $F=spr, $ttl=1000, $D=lce, $xi=1, $R=lru, $csize=1e3, $pricebits=0, $mytime=1800, $repetition=0"
attr lambda 100
attr measurement "$net=geant_cost, $rep=4, $priceratiovalue=10, $weights=0.333_0.333_0.334, $lambda=100, $a=1, $ctlg=1e5, $F=spr, $ttl=1000, $D=lce, $xi=1, $R=lru, $csize=1e3, $pricebits=0, $mytime=1800"
attr mytime 1800
attr net geant_cost
attr network "networks.${net=geant_cost, abilene_cost}_network"
attr pricebits 0
attr priceratiovalue 10
attr processid 10613
attr rep 4
attr repetition 0
attr replication #0
attr resultdir results
attr runnumber 5
attr seedset 4
attr ttl 1000
attr weights 0.333_0.333_0.334
attr xi 1

scalar . 	a 	1
scalar . 	csize 	1e3
scalar . 	ctlg 	1e5
scalar . 	lambda 	100
scalar . 	mytime 	1800
scalar . 	pricebits 	0
scalar . 	priceratiovalue 	10
scalar . 	rep 	4
scalar . 	ttl 	1000
scalar . 	xi 	1
scalar geant_cost_network.content_distribution 	repo-0 	22
scalar geant_cost_network.content_distribution 	repo-1 	23
scalar geant_cost_network.content_distribution 	repo-2 	24
scalar geant_cost_network.content_distribution 	client-0 	20
scalar geant_cost_network.content_distribution 	client-1 	10
scalar geant_cost_network.content_distribution 	client-2 	12
scalar geant_cost_network.content_distribution 	client-3 	9
scalar geant_cost_network.content_distribution 	client-4 	5
scalar geant_cost_network.content_distribution 	repo-0_card 	33272
scalar geant_cost_network.content_distribution 	repo-1_card 	33152
scalar geant_cost_network.content_distribution 	repo-2_card 	33576
scalar geant_cost_network.statistics 	repo_popularity[0] 	0.28234107170654
scalar geant_cost_network.statistics 	repo_popularity[1] 	0.30413978820018
scalar geant_cost_network.statistics 	repo_popularity[2] 	0.41351914009327
scalar geant_cost_network.statistics 	stabilization_time 	36060
scalar geant_cost_network.node[7].face$o[4].channel 	price[7] 	0
scalar geant_cost_network.node[7].face$o[4].channel 	represented_price[7] 	0
scalar geant_cost_network.node[8].face$o[3].channel 	price[8] 	0
scalar geant_cost_network.node[8].face$o[3].channel 	represented_price[8] 	0
scalar geant_cost_network.node[21].face$o[5].channel 	price[21] 	0
scalar geant_cost_network.node[21].face$o[5].channel 	represented_price[21] 	0
scalar geant_cost_network.node[22].face$o[1].channel 	price[22] 	0
scalar geant_cost_network.node[22].face$o[1].channel 	represented_price[22] 	0
scalar geant_cost_network.node[23].face$o[1].channel 	price[23] 	1
scalar geant_cost_network.node[23].face$o[1].channel 	represented_price[23] 	1
scalar geant_cost_network.node[24].face$o[1].channel 	price[24] 	10
scalar geant_cost_network.node[24].face$o[1].channel 	represented_price[24] 	10
scalar geant_cost_network.statistics 	p_hit 	0.079777276393469
scalar geant_cost_network.statistics 	interests 	134099.84
scalar geant_cost_network.statistics 	data 	98115.84
scalar geant_cost_network.statistics 	hdistance 	3.4335654850044
scalar geant_cost_network.statistics 	avg_time 	0.005128174485
scalar geant_cost_network.statistics 	downloads 	898740
scalar geant_cost_network.statistics 	total_cost 	2317558
scalar geant_cost_network.statistics 	total_replicas 	100000
scalar geant_cost_network.statistics 	inner_hit 	0.29812626566081
scalar geant_cost_network.statistics 	interests_sent 	899598
scalar geant_cost_network.node[0].core_layer 	interests[0] 	0
scalar geant_cost_network.node[0].core_layer 	data[0] 	0
scalar geant_cost_network.node[0].core_layer 	repo_int[0] 	630802
scalar geant_cost_network.node[0].content_store 	p_hit[0] 	-nan
scalar geant_cost_network.node[0].content_store 	hits[0] 	0
scalar geant_cost_network.node[0].content_store 	misses[0] 	0
scalar geant_cost_network.node[0].content_store 	decision_yes[0] 	0
scalar geant_cost_network.node[0].content_store 	decision_no[0] 	0
scalar geant_cost_network.node[0].content_store 	decision_ratio[0] 	0
scalar geant_cost_network.node[1].core_layer 	interests[1] 	0
scalar geant_cost_network.node[1].core_layer 	data[1] 	0
scalar geant_cost_network.node[1].content_store 	p_hit[1] 	-nan
scalar geant_cost_network.node[1].content_store 	hits[1] 	0
scalar geant_cost_network.node[1].content_store 	misses[1] 	0
scalar geant_cost_network.node[1].content_store 	decision_yes[1] 	0
scalar geant_cost_network.node[1].content_store 	decision_no[1] 	0
scalar geant_cost_network.node[1].content_store 	decision_ratio[1] 	0
scalar geant_cost_network.node[2].core_layer 	interests[2] 	0
scalar geant_cost_network.node[2].core_layer 	data[2] 	0
scalar geant_cost_network.node[2].content_store 	p_hit[2] 	-nan
scalar geant_cost_network.node[2].content_store 	hits[2] 	0
scalar geant_cost_network.node[2].content_store 	misses[2] 	0
scalar geant_cost_network.node[2].content_store 	decision_yes[2] 	0
scalar geant_cost_network.node[2].content_store 	decision_no[2] 	0
scalar geant_cost_network.node[2].content_store 	decision_ratio[2] 	0
scalar geant_cost_network.node[3].core_layer 	interests[3] 	185819
scalar geant_cost_network.node[3].core_layer 	data[3] 	181268
scalar geant_cost_network.node[3].content_store 	p_hit[3] 	0.024491575134943
scalar geant_cost_network.node[3].content_store 	hits[3] 	4551
scalar geant_cost_network.node[3].content_store 	misses[3] 	181268
scalar geant_cost_network.node[3].content_store 	decision_yes[3] 	181268
scalar geant_cost_network.node[3].content_store 	decision_no[3] 	0
scalar geant_cost_network.node[3].content_store 	decision_ratio[3] 	1
scalar geant_cost_network.node[4].core_layer 	interests[4] 	269332
scalar geant_cost_network.node[4].core_layer 	data[4] 	267503
scalar geant_cost_network.node[4].content_store 	p_hit[4] 	0.0067314689676682
scalar geant_cost_network.node[4].content_store 	hits[4] 	1813
scalar geant_cost_network.node[4].content_store 	misses[4] 	267519
scalar geant_cost_network.node[4].content_store 	decision_yes[4] 	267503
scalar geant_cost_network.node[4].content_store 	decision_no[4] 	0
scalar geant_cost_network.node[4].content_store 	decision_ratio[4] 	1
scalar geant_cost_network.node[5].core_layer 	interests[5] 	180216
scalar geant_cost_network.node[5].core_layer 	data[5] 	140808
scalar geant_cost_network.node[5].content_store 	p_hit[5] 	0.21718382385582
scalar geant_cost_network.node[5].content_store 	hits[5] 	39140
scalar geant_cost_network.node[5].content_store 	misses[5] 	141076
scalar geant_cost_network.node[5].content_store 	decision_yes[5] 	140808
scalar geant_cost_network.node[5].content_store 	decision_no[5] 	0
scalar geant_cost_network.node[5].content_store 	decision_ratio[5] 	1
scalar geant_cost_network.node[6].core_layer 	interests[6] 	90393
scalar geant_cost_network.node[6].core_layer 	data[6] 	87675
scalar geant_cost_network.node[6].content_store 	p_hit[6] 	0.030068700009957
scalar geant_cost_network.node[6].content_store 	hits[6] 	2718
scalar geant_cost_network.node[6].content_store 	misses[6] 	87675
scalar geant_cost_network.node[6].content_store 	decision_yes[6] 	87675
scalar geant_cost_network.node[6].content_store 	decision_no[6] 	0
scalar geant_cost_network.node[6].content_store 	decision_ratio[6] 	1
scalar geant_cost_network.node[7].core_layer 	interests[7] 	309917
scalar geant_cost_network.node[7].core_layer 	data[7] 	297247
scalar geant_cost_network.node[7].content_store 	p_hit[7] 	0.040830286818729
scalar geant_cost_network.node[7].content_store 	hits[7] 	12654
scalar geant_cost_network.node[7].content_store 	misses[7] 	297263
scalar geant_cost_network.node[7].content_store 	decision_yes[7] 	297247
scalar geant_cost_network.node[7].content_store 	decision_no[7] 	0
scalar geant_cost_network.node[7].content_store 	decision_ratio[7] 	1
scalar geant_cost_network.node[8].core_layer 	interests[8] 	308874
scalar geant_cost_network.node[8].core_layer 	data[8] 	298294
scalar geant_cost_network.node[8].content_store 	p_hit[8] 	0.034250212060581
scalar geant_cost_network.node[8].content_store 	hits[8] 	10579
scalar geant_cost_network.node[8].content_store 	misses[8] 	298295
scalar geant_cost_network.node[8].content_store 	decision_yes[8] 	298294
scalar geant_cost_network.node[8].content_store 	decision_no[8] 	0
scalar geant_cost_network.node[8].content_store 	decision_ratio[8] 	1
scalar geant_cost_network.node[9].core_layer 	interests[9] 	367765
scalar geant_cost_network.node[9].core_layer 	data[9] 	324357
scalar geant_cost_network.node[9].content_store 	p_hit[9] 	0.11705572852229
scalar geant_cost_network.node[9].content_store 	hits[9] 	43049
scalar geant_cost_network.node[9].content_store 	misses[9] 	324716
scalar geant_cost_network.node[9].content_store 	decision_yes[9] 	324357
scalar geant_cost_network.node[9].content_store 	decision_no[9] 	0
scalar geant_cost_network.node[9].content_store 	decision_ratio[9] 	1
scalar geant_cost_network.node[10].core_layer 	interests[10] 	179602
scalar geant_cost_network.node[10].core_layer 	data[10] 	140174
scalar geant_cost_network.node[10].content_store 	p_hit[10] 	0.21867796572421
scalar geant_cost_network.node[10].content_store 	hits[10] 	39275
scalar geant_cost_network.node[10].content_store 	misses[10] 	140327
scalar geant_cost_network.node[10].content_store 	decision_yes[10] 	140174
scalar geant_cost_network.node[10].content_store 	decision_no[10] 	0
scalar geant_cost_network.node[10].content_store 	decision_ratio[10] 	1
scalar geant_cost_network.node[11].core_layer 	interests[11] 	0
scalar geant_cost_network.node[11].core_layer 	data[11] 	0
scalar geant_cost_network.node[11].content_store 	p_hit[11] 	-nan
scalar geant_cost_network.node[11].content_store 	hits[11] 	0
scalar geant_cost_network.node[11].content_store 	misses[11] 	0
scalar geant_cost_network.node[11].content_store 	decision_yes[11] 	0
scalar geant_cost_network.node[11].content_store 	decision_no[11] 	0
scalar geant_cost_network.node[11].content_store 	decision_ratio[11] 	0
scalar geant_cost_network.node[12].core_layer 	interests[12] 	281585
scalar geant_cost_network.node[12].core_layer 	data[12] 	233416
scalar geant_cost_network.node[12].content_store 	p_hit[12] 	0.16965392332688
scalar geant_cost_network.node[12].content_store 	hits[12] 	47772
scalar geant_cost_network.node[12].content_store 	misses[12] 	233813
scalar geant_cost_network.node[12].content_store 	decision_yes[12] 	233416
scalar geant_cost_network.node[12].content_store 	decision_no[12] 	0
scalar geant_cost_network.node[12].content_store 	decision_ratio[12] 	1
scalar geant_cost_network.node[13].core_layer 	interests[13] 	0
scalar geant_cost_network.node[13].core_layer 	data[13] 	0
scalar geant_cost_network.node[13].content_store 	p_hit[13] 	-nan
scalar geant_cost_network.node[13].content_store 	hits[13] 	0
scalar geant_cost_network.node[13].content_store 	misses[13] 	0
scalar geant_cost_network.node[13].content_store 	decision_yes[13] 	0
scalar geant_cost_network.node[13].content_store 	decision_no[13] 	0
scalar geant_cost_network.node[13].content_store 	decision_ratio[13] 	0
scalar geant_cost_network.node[14].core_layer 	interests[14] 	50415
scalar geant_cost_network.node[14].core_layer 	data[14] 	42971
scalar geant_cost_network.node[14].content_store 	p_hit[14] 	0.14765446791629
scalar geant_cost_network.node[14].content_store 	hits[14] 	7444
scalar geant_cost_network.node[14].content_store 	misses[14] 	42971
scalar geant_cost_network.node[14].content_store 	decision_yes[14] 	42971
scalar geant_cost_network.node[14].content_store 	decision_no[14] 	0
scalar geant_cost_network.node[14].content_store 	decision_ratio[14] 	1
scalar geant_cost_network.node[15].core_layer 	interests[15] 	0
scalar geant_cost_network.node[15].core_layer 	data[15] 	0
scalar geant_cost_network.node[15].content_store 	p_hit[15] 	-nan
scalar geant_cost_network.node[15].content_store 	hits[15] 	0
scalar geant_cost_network.node[15].content_store 	misses[15] 	0
scalar geant_cost_network.node[15].content_store 	decision_yes[15] 	0
scalar geant_cost_network.node[15].content_store 	decision_no[15] 	0
scalar geant_cost_network.node[15].content_store 	decision_ratio[15] 	0
scalar geant_cost_network.node[16].core_layer 	interests[16] 	0
scalar geant_cost_network.node[16].core_layer 	data[16] 	0
scalar geant_cost_network.node[16].content_store 	p_hit[16] 	-nan
scalar geant_cost_network.node[16].content_store 	hits[16] 	0
scalar geant_cost_network.node[16].content_store 	misses[16] 	0
scalar geant_cost_network.node[16].content_store 	decision_yes[16] 	0
scalar geant_cost_network.node[16].content_store 	decision_no[16] 	0
scalar geant_cost_network.node[16].content_store 	decision_ratio[16] 	0
scalar geant_cost_network.node[17].core_layer 	interests[17] 	0
scalar geant_cost_network.node[17].core_layer 	data[17] 	0
scalar geant_cost_network.node[17].content_store 	p_hit[17] 	-nan
scalar geant_cost_network.node[17].content_store 	hits[17] 	0
scalar geant_cost_network.node[17].content_store 	misses[17] 	0
scalar geant_cost_network.node[17].content_store 	decision_yes[17] 	0
scalar geant_cost_network.node[17].content_store 	decision_no[17] 	0
scalar geant_cost_network.node[17].content_store 	decision_ratio[17] 	0
scalar geant_cost_network.node[18].core_layer 	interests[18] 	90641
scalar geant_cost_network.node[18].core_layer 	data[18] 	88065
scalar geant_cost_network.node[18].content_store 	p_hit[18] 	0.028430842554694
scalar geant_cost_network.node[18].content_store 	hits[18] 	2577
scalar geant_cost_network.node[18].content_store 	misses[18] 	88064
scalar geant_cost_network.node[18].content_store 	decision_yes[18] 	88065
scalar geant_cost_network.node[18].content_store 	decision_no[18] 	0
scalar geant_cost_network.node[18].content_store 	decision_ratio[18] 	1
scalar geant_cost_network.node[19].core_layer 	interests[19] 	0
scalar geant_cost_network.node[19].core_layer 	data[19] 	0
scalar geant_cost_network.node[19].content_store 	p_hit[19] 	-nan
scalar geant_cost_network.node[19].content_store 	hits[19] 	0
scalar geant_cost_network.node[19].content_store 	misses[19] 	0
scalar geant_cost_network.node[19].content_store 	decision_yes[19] 	0
scalar geant_cost_network.node[19].content_store 	decision_no[19] 	0
scalar geant_cost_network.node[19].content_store 	decision_ratio[19] 	0
scalar geant_cost_network.node[20].core_layer 	interests[20] 	179609
scalar geant_cost_network.node[20].core_layer 	data[20] 	140220
scalar geant_cost_network.node[20].content_store 	p_hit[20] 	0.21854695477398
scalar geant_cost_network.node[20].content_store 	hits[20] 	39253
scalar geant_cost_network.node[20].content_store 	misses[20] 	140356
scalar geant_cost_network.node[20].content_store 	decision_yes[20] 	140220
scalar geant_cost_network.node[20].content_store 	decision_no[20] 	0
scalar geant_cost_network.node[20].content_store 	decision_ratio[20] 	1
scalar geant_cost_network.node[21].core_layer 	interests[21] 	227526
scalar geant_cost_network.node[21].core_layer 	data[21] 	210898
scalar geant_cost_network.node[21].content_store 	p_hit[21] 	0.073081757689231
scalar geant_cost_network.node[21].content_store 	hits[21] 	16628
scalar geant_cost_network.node[21].content_store 	misses[21] 	210898
scalar geant_cost_network.node[21].content_store 	decision_yes[21] 	210898
scalar geant_cost_network.node[21].content_store 	decision_no[21] 	0
scalar geant_cost_network.node[21].content_store 	decision_ratio[21] 	1
scalar geant_cost_network.node[22].core_layer 	interests[22] 	211326
scalar geant_cost_network.node[22].core_layer 	repo_load[22] 	211326
scalar geant_cost_network.node[22].core_layer 	data[22] 	0
scalar geant_cost_network.node[22].content_store 	p_hit[22] 	0
scalar geant_cost_network.node[22].content_store 	hits[22] 	0
scalar geant_cost_network.node[22].content_store 	misses[22] 	211326
scalar geant_cost_network.node[22].content_store 	decision_yes[22] 	0
scalar geant_cost_network.node[22].content_store 	decision_no[22] 	211326
scalar geant_cost_network.node[22].content_store 	decision_ratio[22] 	0
scalar geant_cost_network.node[23].core_layer 	interests[23] 	208578
scalar geant_cost_network.node[23].core_layer 	repo_load[23] 	208578
scalar geant_cost_network.node[23].core_layer 	data[23] 	0
scalar geant_cost_network.node[23].content_store 	p_hit[23] 	0
scalar geant_cost_network.node[23].content_store 	hits[23] 	0
scalar geant_cost_network.node[23].content_store 	misses[23] 	208578
scalar geant_cost_network.node[23].content_store 	decision_yes[23] 	0
scalar geant_cost_network.node[23].content_store 	decision_no[23] 	208578
scalar geant_cost_network.node[23].content_store 	decision_ratio[23] 	0
scalar geant_cost_network.node[24].core_layer 	interests[24] 	210898
scalar geant_cost_network.node[24].core_layer 	repo_load[24] 	210898
scalar geant_cost_network.node[24].core_layer 	data[24] 	0
scalar geant_cost_network.node[24].content_store 	p_hit[24] 	0
scalar geant_cost_network.node[24].content_store 	hits[24] 	0
scalar geant_cost_network.node[24].content_store 	misses[24] 	210898
scalar geant_cost_network.node[24].content_store 	decision_yes[24] 	0
scalar geant_cost_network.node[24].content_store 	decision_no[24] 	210898
scalar geant_cost_network.node[24].content_store 	decision_ratio[24] 	0
scalar geant_cost_network.client[5] 	hdistance[5] 	3.0970058016761
scalar geant_cost_network.client[5] 	downloads[5] 	179948
scalar geant_cost_network.client[5] 	avg_time[5] 	0.008102690187
scalar geant_cost_network.client[5] 	interests_sent[5] 	180216
scalar geant_cost_network.client[9] 	hdistance[9] 	3.2888829577238
scalar geant_cost_network.client[9] 	downloads[9] 	179841
scalar geant_cost_network.client[9] 	avg_time[9] 	0.003380627858
scalar geant_cost_network.client[9] 	interests_sent[9] 	179992
scalar geant_cost_network.client[10] 	hdistance[10] 	3.8857614141065
scalar geant_cost_network.client[10] 	downloads[10] 	179449
scalar geant_cost_network.client[10] 	avg_time[10] 	0.004726763119
scalar geant_cost_network.client[10] 	interests_sent[10] 	179602
scalar geant_cost_network.client[12] 	hdistance[12] 	3.4970865804954
scalar geant_cost_network.client[12] 	downloads[12] 	180029
scalar geant_cost_network.client[12] 	avg_time[12] 	0.003969084348
scalar geant_cost_network.client[12] 	interests_sent[12] 	180179
scalar geant_cost_network.client[20] 	hdistance[20] 	3.3990906710201
scalar geant_cost_network.client[20] 	downloads[20] 	179473
scalar geant_cost_network.client[20] 	avg_time[20] 	0.005461706915
scalar geant_cost_network.client[20] 	interests_sent[20] 	179609
