version 2
run General-7-20140625-11:53:00-10647
attr D fix0.00001
attr F nrr
attr R lru
attr a 1
attr configname General
attr csize 1e3
attr ctlg 1e5
attr datetime 20140625-11:53:00
attr experiment General
attr inifile omnetpp.ini
attr iterationvars "$net=geant_cost, $rep=1, $priceratiovalue=10, $weights=0.333_0.333_0.334, $lambda=100, $a=1, $ctlg=1e5, $F=nrr, $ttl=1000, $D=fix0.00001, $xi=1, $R=lru, $csize=1e3, $pricebits=0, $mytime=1800"
attr iterationvars2 "$net=geant_cost, $rep=1, $priceratiovalue=10, $weights=0.333_0.333_0.334, $lambda=100, $a=1, $ctlg=1e5, $F=nrr, $ttl=1000, $D=fix0.00001, $xi=1, $R=lru, $csize=1e3, $pricebits=0, $mytime=1800, $repetition=0"
attr lambda 100
attr measurement "$net=geant_cost, $rep=1, $priceratiovalue=10, $weights=0.333_0.333_0.334, $lambda=100, $a=1, $ctlg=1e5, $F=nrr, $ttl=1000, $D=fix0.00001, $xi=1, $R=lru, $csize=1e3, $pricebits=0, $mytime=1800"
attr mytime 1800
attr net geant_cost
attr network networks.${net=geant_cost}_network
attr pricebits 0
attr priceratiovalue 10
attr processid 10647
attr rep 1
attr repetition 0
attr replication #0
attr resultdir results
attr runnumber 7
attr seedset 1
attr ttl 1000
attr weights 0.333_0.333_0.334
attr xi 1

scalar . 	a 	1
scalar . 	csize 	1e3
scalar . 	ctlg 	1e5
scalar . 	lambda 	100
scalar . 	mytime 	1800
scalar . 	pricebits 	0
scalar . 	priceratiovalue 	10
scalar . 	rep 	1
scalar . 	ttl 	1000
scalar . 	xi 	1
scalar geant_cost_network.content_distribution 	repo-0 	22
scalar geant_cost_network.content_distribution 	repo-1 	23
scalar geant_cost_network.content_distribution 	repo-2 	24
scalar geant_cost_network.content_distribution 	client-0 	20
scalar geant_cost_network.content_distribution 	client-1 	10
scalar geant_cost_network.content_distribution 	client-2 	12
scalar geant_cost_network.content_distribution 	client-3 	9
scalar geant_cost_network.content_distribution 	client-4 	5
scalar geant_cost_network.content_distribution 	repo-0_card 	33396
scalar geant_cost_network.content_distribution 	repo-1_card 	33039
scalar geant_cost_network.content_distribution 	repo-2_card 	33565
scalar geant_cost_network.statistics 	repo_popularity[0] 	0.28686251265602
scalar geant_cost_network.statistics 	repo_popularity[1] 	0.2886063426465
scalar geant_cost_network.statistics 	repo_popularity[2] 	0.42453114469748
scalar geant_cost_network.statistics 	stabilization_time 	36060
scalar geant_cost_network.node[7].face$o[4].channel 	price[7] 	0
scalar geant_cost_network.node[7].face$o[4].channel 	represented_price[7] 	0
scalar geant_cost_network.node[8].face$o[3].channel 	price[8] 	0
scalar geant_cost_network.node[8].face$o[3].channel 	represented_price[8] 	0
scalar geant_cost_network.node[21].face$o[5].channel 	price[21] 	0
scalar geant_cost_network.node[21].face$o[5].channel 	represented_price[21] 	0
scalar geant_cost_network.node[22].face$o[1].channel 	price[22] 	0
scalar geant_cost_network.node[22].face$o[1].channel 	represented_price[22] 	0
scalar geant_cost_network.node[23].face$o[1].channel 	price[23] 	1
scalar geant_cost_network.node[23].face$o[1].channel 	represented_price[23] 	1
scalar geant_cost_network.node[24].face$o[1].channel 	price[24] 	10
scalar geant_cost_network.node[24].face$o[1].channel 	represented_price[24] 	10
scalar geant_cost_network.statistics 	p_hit 	0.11639723717081
scalar geant_cost_network.statistics 	interests 	127741.52
scalar geant_cost_network.statistics 	data 	91728.04
scalar geant_cost_network.statistics 	hdistance 	3.1365972609018
scalar geant_cost_network.statistics 	avg_time 	0.005301137132
scalar geant_cost_network.statistics 	downloads 	899345
scalar geant_cost_network.statistics 	total_cost 	1921232
scalar geant_cost_network.statistics 	total_replicas 	100000
scalar geant_cost_network.statistics 	inner_hit 	0.41353763016418
scalar geant_cost_network.statistics 	interests_sent 	900331
scalar geant_cost_network.node[0].core_layer 	interests[0] 	0
scalar geant_cost_network.node[0].core_layer 	data[0] 	0
scalar geant_cost_network.node[0].core_layer 	repo_int[0] 	527432
scalar geant_cost_network.node[0].content_store 	p_hit[0] 	-nan
scalar geant_cost_network.node[0].content_store 	hits[0] 	0
scalar geant_cost_network.node[0].content_store 	misses[0] 	0
scalar geant_cost_network.node[0].content_store 	decision_yes[0] 	0
scalar geant_cost_network.node[0].content_store 	decision_no[0] 	0
scalar geant_cost_network.node[0].content_store 	decision_ratio[0] 	0
scalar geant_cost_network.node[1].core_layer 	interests[1] 	0
scalar geant_cost_network.node[1].core_layer 	data[1] 	0
scalar geant_cost_network.node[1].content_store 	p_hit[1] 	-nan
scalar geant_cost_network.node[1].content_store 	hits[1] 	0
scalar geant_cost_network.node[1].content_store 	misses[1] 	0
scalar geant_cost_network.node[1].content_store 	decision_yes[1] 	0
scalar geant_cost_network.node[1].content_store 	decision_no[1] 	0
scalar geant_cost_network.node[1].content_store 	decision_ratio[1] 	0
scalar geant_cost_network.node[2].core_layer 	interests[2] 	0
scalar geant_cost_network.node[2].core_layer 	data[2] 	0
scalar geant_cost_network.node[2].content_store 	p_hit[2] 	-nan
scalar geant_cost_network.node[2].content_store 	hits[2] 	0
scalar geant_cost_network.node[2].content_store 	misses[2] 	0
scalar geant_cost_network.node[2].content_store 	decision_yes[2] 	0
scalar geant_cost_network.node[2].content_store 	decision_no[2] 	0
scalar geant_cost_network.node[2].content_store 	decision_ratio[2] 	0
scalar geant_cost_network.node[3].core_layer 	interests[3] 	199932
scalar geant_cost_network.node[3].core_layer 	data[3] 	171160
scalar geant_cost_network.node[3].content_store 	p_hit[3] 	0.14386891543125
scalar geant_cost_network.node[3].content_store 	hits[3] 	28764
scalar geant_cost_network.node[3].content_store 	misses[3] 	171168
scalar geant_cost_network.node[3].content_store 	decision_yes[3] 	2
scalar geant_cost_network.node[3].content_store 	decision_no[3] 	171158
scalar geant_cost_network.node[3].content_store 	decision_ratio[3] 	1.1684973124562e-05
scalar geant_cost_network.node[4].core_layer 	interests[4] 	249878
scalar geant_cost_network.node[4].core_layer 	data[4] 	231219
scalar geant_cost_network.node[4].content_store 	p_hit[4] 	0.07462841866831
scalar geant_cost_network.node[4].content_store 	hits[4] 	18648
scalar geant_cost_network.node[4].content_store 	misses[4] 	231230
scalar geant_cost_network.node[4].content_store 	decision_yes[4] 	4
scalar geant_cost_network.node[4].content_store 	decision_no[4] 	231215
scalar geant_cost_network.node[4].content_store 	decision_ratio[4] 	1.7299616381007e-05
scalar geant_cost_network.node[5].core_layer 	interests[5] 	187014
scalar geant_cost_network.node[5].core_layer 	data[5] 	156213
scalar geant_cost_network.node[5].content_store 	p_hit[5] 	0.16144245885335
scalar geant_cost_network.node[5].content_store 	hits[5] 	30192
scalar geant_cost_network.node[5].content_store 	misses[5] 	156822
scalar geant_cost_network.node[5].content_store 	decision_yes[5] 	2
scalar geant_cost_network.node[5].content_store 	decision_no[5] 	156211
scalar geant_cost_network.node[5].content_store 	decision_ratio[5] 	1.280303175792e-05
scalar geant_cost_network.node[6].core_layer 	interests[6] 	79036
scalar geant_cost_network.node[6].core_layer 	data[6] 	77675
scalar geant_cost_network.node[6].content_store 	p_hit[6] 	0.017220001012197
scalar geant_cost_network.node[6].content_store 	hits[6] 	1361
scalar geant_cost_network.node[6].content_store 	misses[6] 	77675
scalar geant_cost_network.node[6].content_store 	decision_yes[6] 	0
scalar geant_cost_network.node[6].content_store 	decision_no[6] 	77675
scalar geant_cost_network.node[6].content_store 	decision_ratio[6] 	0
scalar geant_cost_network.node[7].core_layer 	interests[7] 	277029
scalar geant_cost_network.node[7].core_layer 	data[7] 	254761
scalar geant_cost_network.node[7].content_store 	p_hit[7] 	0.08035620819481
scalar geant_cost_network.node[7].content_store 	hits[7] 	22261
scalar geant_cost_network.node[7].content_store 	misses[7] 	254768
scalar geant_cost_network.node[7].content_store 	decision_yes[7] 	4
scalar geant_cost_network.node[7].content_store 	decision_no[7] 	254757
scalar geant_cost_network.node[7].content_store 	decision_ratio[7] 	1.5700990339966e-05
scalar geant_cost_network.node[8].core_layer 	interests[8] 	283164
scalar geant_cost_network.node[8].core_layer 	data[8] 	261976
scalar geant_cost_network.node[8].content_store 	p_hit[8] 	0.074825895947225
scalar geant_cost_network.node[8].content_store 	hits[8] 	21188
scalar geant_cost_network.node[8].content_store 	misses[8] 	261976
scalar geant_cost_network.node[8].content_store 	decision_yes[8] 	3
scalar geant_cost_network.node[8].content_store 	decision_no[8] 	261973
scalar geant_cost_network.node[8].content_store 	decision_ratio[8] 	1.1451430665404e-05
scalar geant_cost_network.node[9].core_layer 	interests[9] 	380923
scalar geant_cost_network.node[9].core_layer 	data[9] 	322287
scalar geant_cost_network.node[9].content_store 	p_hit[9] 	0.15335645261641
scalar geant_cost_network.node[9].content_store 	hits[9] 	58417
scalar geant_cost_network.node[9].content_store 	misses[9] 	322506
scalar geant_cost_network.node[9].content_store 	decision_yes[9] 	2
scalar geant_cost_network.node[9].content_store 	decision_no[9] 	322285
scalar geant_cost_network.node[9].content_store 	decision_ratio[9] 	6.2056490022868e-06
scalar geant_cost_network.node[10].core_layer 	interests[10] 	188690
scalar geant_cost_network.node[10].core_layer 	data[10] 	145508
scalar geant_cost_network.node[10].content_store 	p_hit[10] 	0.22826328899253
scalar geant_cost_network.node[10].content_store 	hits[10] 	43071
scalar geant_cost_network.node[10].content_store 	misses[10] 	145619
scalar geant_cost_network.node[10].content_store 	decision_yes[10] 	2
scalar geant_cost_network.node[10].content_store 	decision_no[10] 	145506
scalar geant_cost_network.node[10].content_store 	decision_ratio[10] 	1.3744948731341e-05
scalar geant_cost_network.node[11].core_layer 	interests[11] 	0
scalar geant_cost_network.node[11].core_layer 	data[11] 	0
scalar geant_cost_network.node[11].content_store 	p_hit[11] 	-nan
scalar geant_cost_network.node[11].content_store 	hits[11] 	0
scalar geant_cost_network.node[11].content_store 	misses[11] 	0
scalar geant_cost_network.node[11].content_store 	decision_yes[11] 	0
scalar geant_cost_network.node[11].content_store 	decision_no[11] 	0
scalar geant_cost_network.node[11].content_store 	decision_ratio[11] 	0
scalar geant_cost_network.node[12].core_layer 	interests[12] 	296463
scalar geant_cost_network.node[12].core_layer 	data[12] 	224937
scalar geant_cost_network.node[12].content_store 	p_hit[12] 	0.24078215494008
scalar geant_cost_network.node[12].content_store 	hits[12] 	71383
scalar geant_cost_network.node[12].content_store 	misses[12] 	225080
scalar geant_cost_network.node[12].content_store 	decision_yes[12] 	7
scalar geant_cost_network.node[12].content_store 	decision_no[12] 	224930
scalar geant_cost_network.node[12].content_store 	decision_ratio[12] 	3.1119824662016e-05
scalar geant_cost_network.node[13].core_layer 	interests[13] 	2188
scalar geant_cost_network.node[13].core_layer 	data[13] 	2188
scalar geant_cost_network.node[13].content_store 	p_hit[13] 	0
scalar geant_cost_network.node[13].content_store 	hits[13] 	0
scalar geant_cost_network.node[13].content_store 	misses[13] 	2188
scalar geant_cost_network.node[13].content_store 	decision_yes[13] 	0
scalar geant_cost_network.node[13].content_store 	decision_no[13] 	2188
scalar geant_cost_network.node[13].content_store 	decision_ratio[13] 	0
scalar geant_cost_network.node[14].core_layer 	interests[14] 	56877
scalar geant_cost_network.node[14].core_layer 	data[14] 	42431
scalar geant_cost_network.node[14].content_store 	p_hit[14] 	0.25398667299611
scalar geant_cost_network.node[14].content_store 	hits[14] 	14446
scalar geant_cost_network.node[14].content_store 	misses[14] 	42431
scalar geant_cost_network.node[14].content_store 	decision_yes[14] 	1
scalar geant_cost_network.node[14].content_store 	decision_no[14] 	42430
scalar geant_cost_network.node[14].content_store 	decision_ratio[14] 	2.3567674577549e-05
scalar geant_cost_network.node[15].core_layer 	interests[15] 	0
scalar geant_cost_network.node[15].core_layer 	data[15] 	0
scalar geant_cost_network.node[15].content_store 	p_hit[15] 	-nan
scalar geant_cost_network.node[15].content_store 	hits[15] 	0
scalar geant_cost_network.node[15].content_store 	misses[15] 	0
scalar geant_cost_network.node[15].content_store 	decision_yes[15] 	0
scalar geant_cost_network.node[15].content_store 	decision_no[15] 	0
scalar geant_cost_network.node[15].content_store 	decision_ratio[15] 	0
scalar geant_cost_network.node[16].core_layer 	interests[16] 	0
scalar geant_cost_network.node[16].core_layer 	data[16] 	0
scalar geant_cost_network.node[16].content_store 	p_hit[16] 	-nan
scalar geant_cost_network.node[16].content_store 	hits[16] 	0
scalar geant_cost_network.node[16].content_store 	misses[16] 	0
scalar geant_cost_network.node[16].content_store 	decision_yes[16] 	0
scalar geant_cost_network.node[16].content_store 	decision_no[16] 	0
scalar geant_cost_network.node[16].content_store 	decision_ratio[16] 	0
scalar geant_cost_network.node[17].core_layer 	interests[17] 	0
scalar geant_cost_network.node[17].core_layer 	data[17] 	0
scalar geant_cost_network.node[17].content_store 	p_hit[17] 	-nan
scalar geant_cost_network.node[17].content_store 	hits[17] 	0
scalar geant_cost_network.node[17].content_store 	misses[17] 	0
scalar geant_cost_network.node[17].content_store 	decision_yes[17] 	0
scalar geant_cost_network.node[17].content_store 	decision_no[17] 	0
scalar geant_cost_network.node[17].content_store 	decision_ratio[17] 	0
scalar geant_cost_network.node[18].core_layer 	interests[18] 	99475
scalar geant_cost_network.node[18].core_layer 	data[18] 	94636
scalar geant_cost_network.node[18].content_store 	p_hit[18] 	0.048645388288515
scalar geant_cost_network.node[18].content_store 	hits[18] 	4839
scalar geant_cost_network.node[18].content_store 	misses[18] 	94636
scalar geant_cost_network.node[18].content_store 	decision_yes[18] 	2
scalar geant_cost_network.node[18].content_store 	decision_no[18] 	94634
scalar geant_cost_network.node[18].content_store 	decision_ratio[18] 	2.1133606661313e-05
scalar geant_cost_network.node[19].core_layer 	interests[19] 	0
scalar geant_cost_network.node[19].core_layer 	data[19] 	0
scalar geant_cost_network.node[19].content_store 	p_hit[19] 	-nan
scalar geant_cost_network.node[19].content_store 	hits[19] 	0
scalar geant_cost_network.node[19].content_store 	misses[19] 	0
scalar geant_cost_network.node[19].content_store 	decision_yes[19] 	0
scalar geant_cost_network.node[19].content_store 	decision_no[19] 	0
scalar geant_cost_network.node[19].content_store 	decision_ratio[19] 	0
scalar geant_cost_network.node[20].core_layer 	interests[20] 	182423
scalar geant_cost_network.node[20].core_layer 	data[20] 	133980
scalar geant_cost_network.node[20].content_store 	p_hit[20] 	0.26512555982524
scalar geant_cost_network.node[20].content_store 	hits[20] 	48365
scalar geant_cost_network.node[20].content_store 	misses[20] 	134058
scalar geant_cost_network.node[20].content_store 	decision_yes[20] 	0
scalar geant_cost_network.node[20].content_store 	decision_no[20] 	133980
scalar geant_cost_network.node[20].content_store 	decision_ratio[20] 	0
scalar geant_cost_network.node[21].core_layer 	interests[21] 	183014
scalar geant_cost_network.node[21].core_layer 	data[21] 	174230
scalar geant_cost_network.node[21].content_store 	p_hit[21] 	0.047996328149759
scalar geant_cost_network.node[21].content_store 	hits[21] 	8784
scalar geant_cost_network.node[21].content_store 	misses[21] 	174230
scalar geant_cost_network.node[21].content_store 	decision_yes[21] 	2
scalar geant_cost_network.node[21].content_store 	decision_no[21] 	174228
scalar geant_cost_network.node[21].content_store 	decision_ratio[21] 	1.1479079377834e-05
scalar geant_cost_network.node[22].core_layer 	interests[22] 	174270
scalar geant_cost_network.node[22].core_layer 	repo_load[22] 	174270
scalar geant_cost_network.node[22].core_layer 	data[22] 	0
scalar geant_cost_network.node[22].content_store 	p_hit[22] 	0
scalar geant_cost_network.node[22].content_store 	hits[22] 	0
scalar geant_cost_network.node[22].content_store 	misses[22] 	174270
scalar geant_cost_network.node[22].content_store 	decision_yes[22] 	0
scalar geant_cost_network.node[22].content_store 	decision_no[22] 	174270
scalar geant_cost_network.node[22].content_store 	decision_ratio[22] 	0
scalar geant_cost_network.node[23].core_layer 	interests[23] 	178932
scalar geant_cost_network.node[23].core_layer 	repo_load[23] 	178932
scalar geant_cost_network.node[23].core_layer 	data[23] 	0
scalar geant_cost_network.node[23].content_store 	p_hit[23] 	0
scalar geant_cost_network.node[23].content_store 	hits[23] 	0
scalar geant_cost_network.node[23].content_store 	misses[23] 	178932
scalar geant_cost_network.node[23].content_store 	decision_yes[23] 	0
scalar geant_cost_network.node[23].content_store 	decision_no[23] 	178932
scalar geant_cost_network.node[23].content_store 	decision_ratio[23] 	0
scalar geant_cost_network.node[24].core_layer 	interests[24] 	174230
scalar geant_cost_network.node[24].core_layer 	repo_load[24] 	174230
scalar geant_cost_network.node[24].core_layer 	data[24] 	0
scalar geant_cost_network.node[24].content_store 	p_hit[24] 	0
scalar geant_cost_network.node[24].content_store 	hits[24] 	0
scalar geant_cost_network.node[24].content_store 	misses[24] 	174230
scalar geant_cost_network.node[24].content_store 	decision_yes[24] 	0
scalar geant_cost_network.node[24].content_store 	decision_no[24] 	174230
scalar geant_cost_network.node[24].content_store 	decision_ratio[24] 	0
scalar geant_cost_network.client[5] 	hdistance[5] 	2.9970812777641
scalar geant_cost_network.client[5] 	downloads[5] 	179188
scalar geant_cost_network.client[5] 	avg_time[5] 	0.008612052173
scalar geant_cost_network.client[5] 	interests_sent[5] 	179797
scalar geant_cost_network.client[9] 	hdistance[9] 	2.8792443806791
scalar geant_cost_network.client[9] 	downloads[9] 	179826
scalar geant_cost_network.client[9] 	avg_time[9] 	0.0034254509
scalar geant_cost_network.client[9] 	interests_sent[9] 	179943
scalar geant_cost_network.client[10] 	hdistance[10] 	3.624441629442
scalar geant_cost_network.client[10] 	downloads[10] 	179988
scalar geant_cost_network.client[10] 	avg_time[10] 	0.004931444642
scalar geant_cost_network.client[10] 	interests_sent[10] 	180099
scalar geant_cost_network.client[12] 	hdistance[12] 	3.023673119429
scalar geant_cost_network.client[12] 	downloads[12] 	179613
scalar geant_cost_network.client[12] 	avg_time[12] 	0.003944103744
scalar geant_cost_network.client[12] 	interests_sent[12] 	179684
scalar geant_cost_network.client[20] 	hdistance[20] 	3.1585458971947
scalar geant_cost_network.client[20] 	downloads[20] 	180730
scalar geant_cost_network.client[20] 	avg_time[20] 	0.005592634201
scalar geant_cost_network.client[20] 	interests_sent[20] 	180808
