version 2
run General-53-20140708-17:59:59-17268
attr D costprobtailcons
attr F spr
attr R lru
attr a 1
attr configname General
attr csize 1e3
attr ctlg 1e5
attr datetime 20140708-17:59:59
attr experiment General
attr inifile omnetpp.ini
attr iterationvars "$net=geant_cost, $rep=7, $priceratiovalue=10, $weights=0.333_0.333_0.334, $lambda=100, $a=1, $ctlg=1e5, $F=spr, $ttl=1000, $D=costprobtailcons, $xi=1, $R=lru, $csize=1e3, $pricebits=0, $window=60, $variance=0.05, $mytime=1800"
attr iterationvars2 "$net=geant_cost, $rep=7, $priceratiovalue=10, $weights=0.333_0.333_0.334, $lambda=100, $a=1, $ctlg=1e5, $F=spr, $ttl=1000, $D=costprobtailcons, $xi=1, $R=lru, $csize=1e3, $pricebits=0, $window=60, $variance=0.05, $mytime=1800, $repetition=0"
attr lambda 100
attr measurement "$net=geant_cost, $rep=7, $priceratiovalue=10, $weights=0.333_0.333_0.334, $lambda=100, $a=1, $ctlg=1e5, $F=spr, $ttl=1000, $D=costprobtailcons, $xi=1, $R=lru, $csize=1e3, $pricebits=0, $window=60, $variance=0.05, $mytime=1800"
attr mytime 1800
attr net geant_cost
attr network "networks.${net=abilene_cost, geant_cost}_network"
attr pricebits 0
attr priceratiovalue 10
attr processid 17268
attr rep 7
attr repetition 0
attr replication #0
attr resultdir results
attr runnumber 53
attr seedset 7
attr ttl 1000
attr variance 0.05
attr weights 0.333_0.333_0.334
attr window 60
attr xi 1

scalar . 	a 	1
scalar . 	csize 	1e3
scalar . 	ctlg 	1e5
scalar . 	lambda 	100
scalar . 	mytime 	1800
scalar . 	pricebits 	0
scalar . 	priceratiovalue 	10
scalar . 	rep 	7
scalar . 	ttl 	1000
scalar . 	variance 	0.05
scalar . 	window 	60
scalar . 	xi 	1
scalar geant_cost_network.content_distribution 	repo-0 	22
scalar geant_cost_network.content_distribution 	repo-1 	23
scalar geant_cost_network.content_distribution 	repo-2 	24
scalar geant_cost_network.content_distribution 	client-0 	20
scalar geant_cost_network.content_distribution 	client-1 	10
scalar geant_cost_network.content_distribution 	client-2 	12
scalar geant_cost_network.content_distribution 	client-3 	9
scalar geant_cost_network.content_distribution 	client-4 	5
scalar geant_cost_network.content_distribution 	repo-0_card 	33104
scalar geant_cost_network.content_distribution 	repo-1_card 	33508
scalar geant_cost_network.content_distribution 	repo-2_card 	33388
scalar geant_cost_network.statistics 	repo_popularity[0] 	0.34609068621501
scalar geant_cost_network.statistics 	repo_popularity[1] 	0.29388785961082
scalar geant_cost_network.statistics 	repo_popularity[2] 	0.36002145417417
scalar geant_cost_network.statistics 	stabilization_time 	36060
scalar geant_cost_network.node[7].face$o[4].channel 	price[7] 	0
scalar geant_cost_network.node[7].face$o[4].channel 	represented_price[7] 	0
scalar geant_cost_network.node[8].face$o[3].channel 	price[8] 	0
scalar geant_cost_network.node[8].face$o[3].channel 	represented_price[8] 	0
scalar geant_cost_network.node[21].face$o[5].channel 	price[21] 	0
scalar geant_cost_network.node[21].face$o[5].channel 	represented_price[21] 	0
scalar geant_cost_network.node[22].face$o[1].channel 	price[22] 	0
scalar geant_cost_network.node[22].face$o[1].channel 	represented_price[22] 	0
scalar geant_cost_network.node[23].face$o[1].channel 	price[23] 	1
scalar geant_cost_network.node[23].face$o[1].channel 	represented_price[23] 	1
scalar geant_cost_network.node[24].face$o[1].channel 	price[24] 	10
scalar geant_cost_network.node[24].face$o[1].channel 	represented_price[24] 	10
scalar geant_cost_network.statistics 	p_hit 	0.078798644221387
scalar geant_cost_network.statistics 	interests 	141958.28
scalar geant_cost_network.statistics 	data 	105928.28
scalar geant_cost_network.statistics 	hdistance 	3.6497253124959
scalar geant_cost_network.statistics 	avg_time 	0.005743969132
scalar geant_cost_network.statistics 	downloads 	895528
scalar geant_cost_network.statistics 	total_cost 	1663233
scalar geant_cost_network.statistics 	total_replicas 	100000
scalar geant_cost_network.statistics 	inner_hit 	0.31435868001894
scalar geant_cost_network.statistics 	interests_sent 	900751
scalar geant_cost_network.node[0].core_layer 	interests[0] 	0
scalar geant_cost_network.node[0].core_layer 	data[0] 	0
scalar geant_cost_network.node[0].core_layer 	repo_int[0] 	614011
scalar geant_cost_network.node[0].content_store 	p_hit[0] 	-nan
scalar geant_cost_network.node[0].content_store 	hits[0] 	0
scalar geant_cost_network.node[0].content_store 	misses[0] 	0
scalar geant_cost_network.node[0].content_store 	decision_yes[0] 	0
scalar geant_cost_network.node[0].content_store 	decision_no[0] 	0
scalar geant_cost_network.node[0].content_store 	decision_ratio[0] 	0
scalar geant_cost_network.node[0].content_store 	correction_factor[0] 	1.5002619537983e-316
scalar geant_cost_network.node[0].content_store 	xi[0] 	1
scalar geant_cost_network.node[1].core_layer 	interests[1] 	0
scalar geant_cost_network.node[1].core_layer 	data[1] 	0
scalar geant_cost_network.node[1].content_store 	p_hit[1] 	-nan
scalar geant_cost_network.node[1].content_store 	hits[1] 	0
scalar geant_cost_network.node[1].content_store 	misses[1] 	0
scalar geant_cost_network.node[1].content_store 	decision_yes[1] 	0
scalar geant_cost_network.node[1].content_store 	decision_no[1] 	0
scalar geant_cost_network.node[1].content_store 	decision_ratio[1] 	0
scalar geant_cost_network.node[1].content_store 	correction_factor[1] 	1.5002619537983e-316
scalar geant_cost_network.node[1].content_store 	xi[1] 	1
scalar geant_cost_network.node[2].core_layer 	interests[2] 	0
scalar geant_cost_network.node[2].core_layer 	data[2] 	0
scalar geant_cost_network.node[2].content_store 	p_hit[2] 	-nan
scalar geant_cost_network.node[2].content_store 	hits[2] 	0
scalar geant_cost_network.node[2].content_store 	misses[2] 	0
scalar geant_cost_network.node[2].content_store 	decision_yes[2] 	0
scalar geant_cost_network.node[2].content_store 	decision_no[2] 	0
scalar geant_cost_network.node[2].content_store 	decision_ratio[2] 	0
scalar geant_cost_network.node[2].content_store 	correction_factor[2] 	1.5020477046686e-316
scalar geant_cost_network.node[2].content_store 	xi[2] 	1
scalar geant_cost_network.node[3].core_layer 	interests[3] 	192238
scalar geant_cost_network.node[3].core_layer 	data[3] 	186341
scalar geant_cost_network.node[3].content_store 	p_hit[3] 	0.030675516807291
scalar geant_cost_network.node[3].content_store 	hits[3] 	5897
scalar geant_cost_network.node[3].content_store 	misses[3] 	186341
scalar geant_cost_network.node[3].content_store 	decision_yes[3] 	0
scalar geant_cost_network.node[3].content_store 	decision_no[3] 	186341
scalar geant_cost_network.node[3].content_store 	decision_ratio[3] 	0
scalar geant_cost_network.node[3].content_store 	correction_factor[3] 	1.5022208252709e-316
scalar geant_cost_network.node[3].content_store 	xi[3] 	1
scalar geant_cost_network.node[4].core_layer 	interests[4] 	294710
scalar geant_cost_network.node[4].core_layer 	data[4] 	293736
scalar geant_cost_network.node[4].content_store 	p_hit[4] 	0.0018696345560042
scalar geant_cost_network.node[4].content_store 	hits[4] 	551
scalar geant_cost_network.node[4].content_store 	misses[4] 	294159
scalar geant_cost_network.node[4].content_store 	decision_yes[4] 	0
scalar geant_cost_network.node[4].content_store 	decision_no[4] 	293736
scalar geant_cost_network.node[4].content_store 	decision_ratio[4] 	0
scalar geant_cost_network.node[4].content_store 	correction_factor[4] 	1.5024895969822e-316
scalar geant_cost_network.node[4].content_store 	xi[4] 	1
scalar geant_cost_network.node[5].core_layer 	interests[5] 	179604
scalar geant_cost_network.node[5].core_layer 	data[5] 	161225
scalar geant_cost_network.node[5].content_store 	p_hit[5] 	0.09313266965101
scalar geant_cost_network.node[5].content_store 	hits[5] 	16727
scalar geant_cost_network.node[5].content_store 	misses[5] 	162877
scalar geant_cost_network.node[5].content_store 	decision_yes[5] 	0
scalar geant_cost_network.node[5].content_store 	decision_no[5] 	161225
scalar geant_cost_network.node[5].content_store 	decision_ratio[5] 	0
scalar geant_cost_network.node[5].content_store 	correction_factor[5] 	1.5027417680879e-316
scalar geant_cost_network.node[5].content_store 	xi[5] 	1
scalar geant_cost_network.node[6].core_layer 	interests[6] 	108820
scalar geant_cost_network.node[6].core_layer 	data[6] 	106209
scalar geant_cost_network.node[6].content_store 	p_hit[6] 	0.023993751148686
scalar geant_cost_network.node[6].content_store 	hits[6] 	2611
scalar geant_cost_network.node[6].content_store 	misses[6] 	106209
scalar geant_cost_network.node[6].content_store 	decision_yes[6] 	0
scalar geant_cost_network.node[6].content_store 	decision_no[6] 	106209
scalar geant_cost_network.node[6].content_store 	decision_ratio[6] 	0
scalar geant_cost_network.node[6].content_store 	correction_factor[6] 	1.5004433747034e-316
scalar geant_cost_network.node[6].content_store 	xi[6] 	1
scalar geant_cost_network.node[7].core_layer 	interests[7] 	399435
scalar geant_cost_network.node[7].core_layer 	data[7] 	382811
scalar geant_cost_network.node[7].content_store 	p_hit[7] 	0.041578729956063
scalar geant_cost_network.node[7].content_store 	hits[7] 	16608
scalar geant_cost_network.node[7].content_store 	misses[7] 	382827
scalar geant_cost_network.node[7].content_store 	decision_yes[7] 	0
scalar geant_cost_network.node[7].content_store 	decision_no[7] 	382811
scalar geant_cost_network.node[7].content_store 	decision_ratio[7] 	0
scalar geant_cost_network.node[7].content_store 	correction_factor[7] 	1.5009635270154e-316
scalar geant_cost_network.node[7].content_store 	xi[7] 	1
scalar geant_cost_network.node[8].core_layer 	interests[8] 	343545
scalar geant_cost_network.node[8].core_layer 	data[8] 	279822
scalar geant_cost_network.node[8].content_store 	p_hit[8] 	0.18548661747369
scalar geant_cost_network.node[8].content_store 	hits[8] 	63723
scalar geant_cost_network.node[8].content_store 	misses[8] 	279822
scalar geant_cost_network.node[8].content_store 	decision_yes[8] 	0
scalar geant_cost_network.node[8].content_store 	decision_no[8] 	279822
scalar geant_cost_network.node[8].content_store 	decision_ratio[8] 	0
scalar geant_cost_network.node[8].content_store 	correction_factor[8] 	1.5023903886006e-316
scalar geant_cost_network.node[8].content_store 	xi[8] 	1
scalar geant_cost_network.node[9].core_layer 	interests[9] 	394339
scalar geant_cost_network.node[9].core_layer 	data[9] 	359356
scalar geant_cost_network.node[9].content_store 	p_hit[9] 	0.084513578418569
scalar geant_cost_network.node[9].content_store 	hits[9] 	33327
scalar geant_cost_network.node[9].content_store 	misses[9] 	361012
scalar geant_cost_network.node[9].content_store 	decision_yes[9] 	0
scalar geant_cost_network.node[9].content_store 	decision_no[9] 	359356
scalar geant_cost_network.node[9].content_store 	decision_ratio[9] 	0
scalar geant_cost_network.node[9].content_store 	correction_factor[9] 	1.5037291088745e-316
scalar geant_cost_network.node[9].content_store 	xi[9] 	1
scalar geant_cost_network.node[10].core_layer 	interests[10] 	180018
scalar geant_cost_network.node[10].core_layer 	data[10] 	162575
scalar geant_cost_network.node[10].content_store 	p_hit[10] 	0.092396315923963
scalar geant_cost_network.node[10].content_store 	hits[10] 	16633
scalar geant_cost_network.node[10].content_store 	misses[10] 	163385
scalar geant_cost_network.node[10].content_store 	decision_yes[10] 	0
scalar geant_cost_network.node[10].content_store 	decision_no[10] 	162575
scalar geant_cost_network.node[10].content_store 	decision_ratio[10] 	0
scalar geant_cost_network.node[10].content_store 	correction_factor[10] 	1.5039725844248e-316
scalar geant_cost_network.node[10].content_store 	xi[10] 	1
scalar geant_cost_network.node[11].core_layer 	interests[11] 	0
scalar geant_cost_network.node[11].core_layer 	data[11] 	0
scalar geant_cost_network.node[11].content_store 	p_hit[11] 	-nan
scalar geant_cost_network.node[11].content_store 	hits[11] 	0
scalar geant_cost_network.node[11].content_store 	misses[11] 	0
scalar geant_cost_network.node[11].content_store 	decision_yes[11] 	0
scalar geant_cost_network.node[11].content_store 	decision_no[11] 	0
scalar geant_cost_network.node[11].content_store 	decision_ratio[11] 	0
scalar geant_cost_network.node[11].content_store 	correction_factor[11] 	1.5042184314902e-316
scalar geant_cost_network.node[11].content_store 	xi[11] 	1
scalar geant_cost_network.node[12].core_layer 	interests[12] 	271974
scalar geant_cost_network.node[12].core_layer 	data[12] 	243252
scalar geant_cost_network.node[12].content_store 	p_hit[12] 	0.10136263025142
scalar geant_cost_network.node[12].content_store 	hits[12] 	27568
scalar geant_cost_network.node[12].content_store 	misses[12] 	244406
scalar geant_cost_network.node[12].content_store 	decision_yes[12] 	0
scalar geant_cost_network.node[12].content_store 	decision_no[12] 	243252
scalar geant_cost_network.node[12].content_store 	decision_ratio[12] 	0
scalar geant_cost_network.node[12].content_store 	correction_factor[12] 	1.5026939425334e-316
scalar geant_cost_network.node[12].content_store 	xi[12] 	1
scalar geant_cost_network.node[13].core_layer 	interests[13] 	0
scalar geant_cost_network.node[13].core_layer 	data[13] 	0
scalar geant_cost_network.node[13].content_store 	p_hit[13] 	-nan
scalar geant_cost_network.node[13].content_store 	hits[13] 	0
scalar geant_cost_network.node[13].content_store 	misses[13] 	0
scalar geant_cost_network.node[13].content_store 	decision_yes[13] 	0
scalar geant_cost_network.node[13].content_store 	decision_no[13] 	0
scalar geant_cost_network.node[13].content_store 	decision_ratio[13] 	0
scalar geant_cost_network.node[13].content_store 	correction_factor[13] 	1.5047180306713e-316
scalar geant_cost_network.node[13].content_store 	xi[13] 	1
scalar geant_cost_network.node[14].core_layer 	interests[14] 	52404
scalar geant_cost_network.node[14].core_layer 	data[14] 	50999
scalar geant_cost_network.node[14].content_store 	p_hit[14] 	0.026810930463323
scalar geant_cost_network.node[14].content_store 	hits[14] 	1405
scalar geant_cost_network.node[14].content_store 	misses[14] 	50999
scalar geant_cost_network.node[14].content_store 	decision_yes[14] 	0
scalar geant_cost_network.node[14].content_store 	decision_no[14] 	50999
scalar geant_cost_network.node[14].content_store 	decision_ratio[14] 	0
scalar geant_cost_network.node[14].content_store 	correction_factor[14] 	0
scalar geant_cost_network.node[14].content_store 	xi[14] 	1
scalar geant_cost_network.node[15].core_layer 	interests[15] 	0
scalar geant_cost_network.node[15].core_layer 	data[15] 	0
scalar geant_cost_network.node[15].content_store 	p_hit[15] 	-nan
scalar geant_cost_network.node[15].content_store 	hits[15] 	0
scalar geant_cost_network.node[15].content_store 	misses[15] 	0
scalar geant_cost_network.node[15].content_store 	decision_yes[15] 	0
scalar geant_cost_network.node[15].content_store 	decision_no[15] 	0
scalar geant_cost_network.node[15].content_store 	decision_ratio[15] 	0
scalar geant_cost_network.node[15].content_store 	correction_factor[15] 	0
scalar geant_cost_network.node[15].content_store 	xi[15] 	1
scalar geant_cost_network.node[16].core_layer 	interests[16] 	0
scalar geant_cost_network.node[16].core_layer 	data[16] 	0
scalar geant_cost_network.node[16].content_store 	p_hit[16] 	-nan
scalar geant_cost_network.node[16].content_store 	hits[16] 	0
scalar geant_cost_network.node[16].content_store 	misses[16] 	0
scalar geant_cost_network.node[16].content_store 	decision_yes[16] 	0
scalar geant_cost_network.node[16].content_store 	decision_no[16] 	0
scalar geant_cost_network.node[16].content_store 	decision_ratio[16] 	0
scalar geant_cost_network.node[16].content_store 	correction_factor[16] 	0
scalar geant_cost_network.node[16].content_store 	xi[16] 	1
scalar geant_cost_network.node[17].core_layer 	interests[17] 	0
scalar geant_cost_network.node[17].core_layer 	data[17] 	0
scalar geant_cost_network.node[17].content_store 	p_hit[17] 	-nan
scalar geant_cost_network.node[17].content_store 	hits[17] 	0
scalar geant_cost_network.node[17].content_store 	misses[17] 	0
scalar geant_cost_network.node[17].content_store 	decision_yes[17] 	0
scalar geant_cost_network.node[17].content_store 	decision_no[17] 	0
scalar geant_cost_network.node[17].content_store 	decision_ratio[17] 	0
scalar geant_cost_network.node[17].content_store 	correction_factor[17] 	0
scalar geant_cost_network.node[17].content_store 	xi[17] 	1
scalar geant_cost_network.node[18].core_layer 	interests[18] 	110261
scalar geant_cost_network.node[18].core_layer 	data[18] 	108369
scalar geant_cost_network.node[18].content_store 	p_hit[18] 	0.017159285694851
scalar geant_cost_network.node[18].content_store 	hits[18] 	1892
scalar geant_cost_network.node[18].content_store 	misses[18] 	108369
scalar geant_cost_network.node[18].content_store 	decision_yes[18] 	0
scalar geant_cost_network.node[18].content_store 	decision_no[18] 	108369
scalar geant_cost_network.node[18].content_store 	decision_ratio[18] 	0
scalar geant_cost_network.node[18].content_store 	correction_factor[18] 	0
scalar geant_cost_network.node[18].content_store 	xi[18] 	1
scalar geant_cost_network.node[19].core_layer 	interests[19] 	0
scalar geant_cost_network.node[19].core_layer 	data[19] 	0
scalar geant_cost_network.node[19].content_store 	p_hit[19] 	-nan
scalar geant_cost_network.node[19].content_store 	hits[19] 	0
scalar geant_cost_network.node[19].content_store 	misses[19] 	0
scalar geant_cost_network.node[19].content_store 	decision_yes[19] 	0
scalar geant_cost_network.node[19].content_store 	decision_no[19] 	0
scalar geant_cost_network.node[19].content_store 	decision_ratio[19] 	0
scalar geant_cost_network.node[19].content_store 	correction_factor[19] 	0
scalar geant_cost_network.node[19].content_store 	xi[19] 	1
scalar geant_cost_network.node[20].core_layer 	interests[20] 	180066
scalar geant_cost_network.node[20].core_layer 	data[20] 	162825
scalar geant_cost_network.node[20].content_store 	p_hit[20] 	0.088112136661002
scalar geant_cost_network.node[20].content_store 	hits[20] 	15866
scalar geant_cost_network.node[20].content_store 	misses[20] 	164200
scalar geant_cost_network.node[20].content_store 	decision_yes[20] 	0
scalar geant_cost_network.node[20].content_store 	decision_no[20] 	162825
scalar geant_cost_network.node[20].content_store 	decision_ratio[20] 	0
scalar geant_cost_network.node[20].content_store 	correction_factor[20] 	0
scalar geant_cost_network.node[20].content_store 	xi[20] 	1
scalar geant_cost_network.node[21].core_layer 	interests[21] 	227532
scalar geant_cost_network.node[21].core_layer 	data[21] 	150687
scalar geant_cost_network.node[21].content_store 	p_hit[21] 	0.33773271451928
scalar geant_cost_network.node[21].content_store 	hits[21] 	76845
scalar geant_cost_network.node[21].content_store 	misses[21] 	150687
scalar geant_cost_network.node[21].content_store 	decision_yes[21] 	0
scalar geant_cost_network.node[21].content_store 	decision_no[21] 	150687
scalar geant_cost_network.node[21].content_store 	decision_ratio[21] 	0
scalar geant_cost_network.node[21].content_store 	correction_factor[21] 	0
scalar geant_cost_network.node[21].content_store 	xi[21] 	1
scalar geant_cost_network.node[22].core_layer 	interests[22] 	306961
scalar geant_cost_network.node[22].core_layer 	repo_load[22] 	306961
scalar geant_cost_network.node[22].core_layer 	data[22] 	0
scalar geant_cost_network.node[22].content_store 	p_hit[22] 	0
scalar geant_cost_network.node[22].content_store 	hits[22] 	0
scalar geant_cost_network.node[22].content_store 	misses[22] 	306961
scalar geant_cost_network.node[22].content_store 	decision_yes[22] 	0
scalar geant_cost_network.node[22].content_store 	decision_no[22] 	306961
scalar geant_cost_network.node[22].content_store 	decision_ratio[22] 	0
scalar geant_cost_network.node[23].core_layer 	interests[23] 	156363
scalar geant_cost_network.node[23].core_layer 	repo_load[23] 	156363
scalar geant_cost_network.node[23].core_layer 	data[23] 	0
scalar geant_cost_network.node[23].content_store 	p_hit[23] 	0
scalar geant_cost_network.node[23].content_store 	hits[23] 	0
scalar geant_cost_network.node[23].content_store 	misses[23] 	156363
scalar geant_cost_network.node[23].content_store 	decision_yes[23] 	0
scalar geant_cost_network.node[23].content_store 	decision_no[23] 	156363
scalar geant_cost_network.node[23].content_store 	decision_ratio[23] 	0
scalar geant_cost_network.node[24].core_layer 	interests[24] 	150687
scalar geant_cost_network.node[24].core_layer 	repo_load[24] 	150687
scalar geant_cost_network.node[24].core_layer 	data[24] 	0
scalar geant_cost_network.node[24].content_store 	p_hit[24] 	0
scalar geant_cost_network.node[24].content_store 	hits[24] 	0
scalar geant_cost_network.node[24].content_store 	misses[24] 	150687
scalar geant_cost_network.node[24].content_store 	decision_yes[24] 	0
scalar geant_cost_network.node[24].content_store 	decision_no[24] 	150687
scalar geant_cost_network.node[24].content_store 	decision_ratio[24] 	0
scalar geant_cost_network.client[5] 	hdistance[5] 	3.3587933824852
scalar geant_cost_network.client[5] 	downloads[5] 	177952
scalar geant_cost_network.client[5] 	avg_time[5] 	0.009236935338
scalar geant_cost_network.client[5] 	interests_sent[5] 	179604
scalar geant_cost_network.client[9] 	hdistance[9] 	3.3109141563256
scalar geant_cost_network.client[9] 	downloads[9] 	180188
scalar geant_cost_network.client[9] 	avg_time[9] 	0.003435168517
scalar geant_cost_network.client[9] 	interests_sent[9] 	180750
scalar geant_cost_network.client[10] 	hdistance[10] 	4.1748861657962
scalar geant_cost_network.client[10] 	downloads[10] 	179208
scalar geant_cost_network.client[10] 	avg_time[10] 	0.0051722507
scalar geant_cost_network.client[10] 	interests_sent[10] 	180018
scalar geant_cost_network.client[12] 	hdistance[12] 	3.7054694159531
scalar geant_cost_network.client[12] 	downloads[12] 	179489
scalar geant_cost_network.client[12] 	avg_time[12] 	0.004357744983
scalar geant_cost_network.client[12] 	interests_sent[12] 	180313
scalar geant_cost_network.client[20] 	hdistance[20] 	3.6985634419193
scalar geant_cost_network.client[20] 	downloads[20] 	178691
scalar geant_cost_network.client[20] 	avg_time[20] 	0.006517746122
scalar geant_cost_network.client[20] 	interests_sent[20] 	180066
