version 2
run General-51-20140708-17:57:01-17266
attr D costprobtailcons
attr F spr
attr R lru
attr a 1
attr configname General
attr csize 1e3
attr ctlg 1e5
attr datetime 20140708-17:57:01
attr experiment General
attr inifile omnetpp.ini
attr iterationvars "$net=geant_cost, $rep=6, $priceratiovalue=10, $weights=0.333_0.333_0.334, $lambda=100, $a=1, $ctlg=1e5, $F=spr, $ttl=1000, $D=costprobtailcons, $xi=1, $R=lru, $csize=1e3, $pricebits=0, $window=60, $variance=0.05, $mytime=1800"
attr iterationvars2 "$net=geant_cost, $rep=6, $priceratiovalue=10, $weights=0.333_0.333_0.334, $lambda=100, $a=1, $ctlg=1e5, $F=spr, $ttl=1000, $D=costprobtailcons, $xi=1, $R=lru, $csize=1e3, $pricebits=0, $window=60, $variance=0.05, $mytime=1800, $repetition=0"
attr lambda 100
attr measurement "$net=geant_cost, $rep=6, $priceratiovalue=10, $weights=0.333_0.333_0.334, $lambda=100, $a=1, $ctlg=1e5, $F=spr, $ttl=1000, $D=costprobtailcons, $xi=1, $R=lru, $csize=1e3, $pricebits=0, $window=60, $variance=0.05, $mytime=1800"
attr mytime 1800
attr net geant_cost
attr network "networks.${net=abilene_cost, geant_cost}_network"
attr pricebits 0
attr priceratiovalue 10
attr processid 17266
attr rep 6
attr repetition 0
attr replication #0
attr resultdir results
attr runnumber 51
attr seedset 6
attr ttl 1000
attr variance 0.05
attr weights 0.333_0.333_0.334
attr window 60
attr xi 1

scalar . 	a 	1
scalar . 	csize 	1e3
scalar . 	ctlg 	1e5
scalar . 	lambda 	100
scalar . 	mytime 	1800
scalar . 	pricebits 	0
scalar . 	priceratiovalue 	10
scalar . 	rep 	6
scalar . 	ttl 	1000
scalar . 	variance 	0.05
scalar . 	window 	60
scalar . 	xi 	1
scalar geant_cost_network.content_distribution 	repo-0 	22
scalar geant_cost_network.content_distribution 	repo-1 	23
scalar geant_cost_network.content_distribution 	repo-2 	24
scalar geant_cost_network.content_distribution 	client-0 	20
scalar geant_cost_network.content_distribution 	client-1 	10
scalar geant_cost_network.content_distribution 	client-2 	12
scalar geant_cost_network.content_distribution 	client-3 	9
scalar geant_cost_network.content_distribution 	client-4 	5
scalar geant_cost_network.content_distribution 	repo-0_card 	33436
scalar geant_cost_network.content_distribution 	repo-1_card 	33143
scalar geant_cost_network.content_distribution 	repo-2_card 	33421
scalar geant_cost_network.statistics 	repo_popularity[0] 	0.39107817255936
scalar geant_cost_network.statistics 	repo_popularity[1] 	0.30968687902184
scalar geant_cost_network.statistics 	repo_popularity[2] 	0.2992349484188
scalar geant_cost_network.statistics 	stabilization_time 	36060
scalar geant_cost_network.node[7].face$o[4].channel 	price[7] 	0
scalar geant_cost_network.node[7].face$o[4].channel 	represented_price[7] 	0
scalar geant_cost_network.node[8].face$o[3].channel 	price[8] 	0
scalar geant_cost_network.node[8].face$o[3].channel 	represented_price[8] 	0
scalar geant_cost_network.node[21].face$o[5].channel 	price[21] 	0
scalar geant_cost_network.node[21].face$o[5].channel 	represented_price[21] 	0
scalar geant_cost_network.node[22].face$o[1].channel 	price[22] 	0
scalar geant_cost_network.node[22].face$o[1].channel 	represented_price[22] 	0
scalar geant_cost_network.node[23].face$o[1].channel 	price[23] 	1
scalar geant_cost_network.node[23].face$o[1].channel 	represented_price[23] 	1
scalar geant_cost_network.node[24].face$o[1].channel 	price[24] 	10
scalar geant_cost_network.node[24].face$o[1].channel 	represented_price[24] 	10
scalar geant_cost_network.statistics 	p_hit 	0.067224221951033
scalar geant_cost_network.statistics 	interests 	145597.52
scalar geant_cost_network.statistics 	data 	109543.6
scalar geant_cost_network.statistics 	hdistance 	3.7893144005118
scalar geant_cost_network.statistics 	avg_time 	0.005869520348
scalar geant_cost_network.statistics 	downloads 	895679
scalar geant_cost_network.statistics 	total_cost 	1602918
scalar geant_cost_network.statistics 	total_replicas 	100000
scalar geant_cost_network.statistics 	inner_hit 	0.27543684735268
scalar geant_cost_network.statistics 	interests_sent 	901354
scalar geant_cost_network.node[0].core_layer 	interests[0] 	0
scalar geant_cost_network.node[0].core_layer 	data[0] 	0
scalar geant_cost_network.node[0].core_layer 	repo_int[0] 	648976
scalar geant_cost_network.node[0].content_store 	p_hit[0] 	-nan
scalar geant_cost_network.node[0].content_store 	hits[0] 	0
scalar geant_cost_network.node[0].content_store 	misses[0] 	0
scalar geant_cost_network.node[0].content_store 	decision_yes[0] 	0
scalar geant_cost_network.node[0].content_store 	decision_no[0] 	0
scalar geant_cost_network.node[0].content_store 	decision_ratio[0] 	0
scalar geant_cost_network.node[0].content_store 	correction_factor[0] 	1.6016489673551e-316
scalar geant_cost_network.node[0].content_store 	xi[0] 	1
scalar geant_cost_network.node[1].core_layer 	interests[1] 	0
scalar geant_cost_network.node[1].core_layer 	data[1] 	0
scalar geant_cost_network.node[1].content_store 	p_hit[1] 	-nan
scalar geant_cost_network.node[1].content_store 	hits[1] 	0
scalar geant_cost_network.node[1].content_store 	misses[1] 	0
scalar geant_cost_network.node[1].content_store 	decision_yes[1] 	0
scalar geant_cost_network.node[1].content_store 	decision_no[1] 	0
scalar geant_cost_network.node[1].content_store 	decision_ratio[1] 	0
scalar geant_cost_network.node[1].content_store 	correction_factor[1] 	1.6016489673551e-316
scalar geant_cost_network.node[1].content_store 	xi[1] 	1
scalar geant_cost_network.node[2].core_layer 	interests[2] 	0
scalar geant_cost_network.node[2].core_layer 	data[2] 	0
scalar geant_cost_network.node[2].content_store 	p_hit[2] 	-nan
scalar geant_cost_network.node[2].content_store 	hits[2] 	0
scalar geant_cost_network.node[2].content_store 	misses[2] 	0
scalar geant_cost_network.node[2].content_store 	decision_yes[2] 	0
scalar geant_cost_network.node[2].content_store 	decision_no[2] 	0
scalar geant_cost_network.node[2].content_store 	decision_ratio[2] 	0
scalar geant_cost_network.node[2].content_store 	correction_factor[2] 	1.6034347182254e-316
scalar geant_cost_network.node[2].content_store 	xi[2] 	1
scalar geant_cost_network.node[3].core_layer 	interests[3] 	185911
scalar geant_cost_network.node[3].core_layer 	data[3] 	182248
scalar geant_cost_network.node[3].content_store 	p_hit[3] 	0.019702976155257
scalar geant_cost_network.node[3].content_store 	hits[3] 	3663
scalar geant_cost_network.node[3].content_store 	misses[3] 	182248
scalar geant_cost_network.node[3].content_store 	decision_yes[3] 	0
scalar geant_cost_network.node[3].content_store 	decision_no[3] 	182248
scalar geant_cost_network.node[3].content_store 	decision_ratio[3] 	0
scalar geant_cost_network.node[3].content_store 	correction_factor[3] 	1.6036078388277e-316
scalar geant_cost_network.node[3].content_store 	xi[3] 	1
scalar geant_cost_network.node[4].core_layer 	interests[4] 	301982
scalar geant_cost_network.node[4].core_layer 	data[4] 	300214
scalar geant_cost_network.node[4].content_store 	p_hit[4] 	0.0043082038002265
scalar geant_cost_network.node[4].content_store 	hits[4] 	1301
scalar geant_cost_network.node[4].content_store 	misses[4] 	300681
scalar geant_cost_network.node[4].content_store 	decision_yes[4] 	0
scalar geant_cost_network.node[4].content_store 	decision_no[4] 	300214
scalar geant_cost_network.node[4].content_store 	decision_ratio[4] 	0
scalar geant_cost_network.node[4].content_store 	correction_factor[4] 	1.6038766105391e-316
scalar geant_cost_network.node[4].content_store 	xi[4] 	1
scalar geant_cost_network.node[5].core_layer 	interests[5] 	180385
scalar geant_cost_network.node[5].core_layer 	data[5] 	166487
scalar geant_cost_network.node[5].content_store 	p_hit[5] 	0.067527787787233
scalar geant_cost_network.node[5].content_store 	hits[5] 	12181
scalar geant_cost_network.node[5].content_store 	misses[5] 	168204
scalar geant_cost_network.node[5].content_store 	decision_yes[5] 	0
scalar geant_cost_network.node[5].content_store 	decision_no[5] 	166487
scalar geant_cost_network.node[5].content_store 	decision_ratio[5] 	0
scalar geant_cost_network.node[5].content_store 	correction_factor[5] 	1.6041287816447e-316
scalar geant_cost_network.node[5].content_store 	xi[5] 	1
scalar geant_cost_network.node[6].core_layer 	interests[6] 	124693
scalar geant_cost_network.node[6].core_layer 	data[6] 	118503
scalar geant_cost_network.node[6].content_store 	p_hit[6] 	0.049641920556888
scalar geant_cost_network.node[6].content_store 	hits[6] 	6190
scalar geant_cost_network.node[6].content_store 	misses[6] 	118503
scalar geant_cost_network.node[6].content_store 	decision_yes[6] 	0
scalar geant_cost_network.node[6].content_store 	decision_no[6] 	118503
scalar geant_cost_network.node[6].content_store 	decision_ratio[6] 	0
scalar geant_cost_network.node[6].content_store 	correction_factor[6] 	1.6018303882603e-316
scalar geant_cost_network.node[6].content_store 	xi[6] 	1
scalar geant_cost_network.node[7].core_layer 	interests[7] 	446205
scalar geant_cost_network.node[7].core_layer 	data[7] 	437342
scalar geant_cost_network.node[7].content_store 	p_hit[7] 	0.019578444885199
scalar geant_cost_network.node[7].content_store 	hits[7] 	8736
scalar geant_cost_network.node[7].content_store 	misses[7] 	437469
scalar geant_cost_network.node[7].content_store 	decision_yes[7] 	0
scalar geant_cost_network.node[7].content_store 	decision_no[7] 	437342
scalar geant_cost_network.node[7].content_store 	decision_ratio[7] 	0
scalar geant_cost_network.node[7].content_store 	correction_factor[7] 	1.6023505405722e-316
scalar geant_cost_network.node[7].content_store 	xi[7] 	1
scalar geant_cost_network.node[8].core_layer 	interests[8] 	352234
scalar geant_cost_network.node[8].core_layer 	data[8] 	296491
scalar geant_cost_network.node[8].content_store 	p_hit[8] 	0.1582584304752
scalar geant_cost_network.node[8].content_store 	hits[8] 	55744
scalar geant_cost_network.node[8].content_store 	misses[8] 	296490
scalar geant_cost_network.node[8].content_store 	decision_yes[8] 	0
scalar geant_cost_network.node[8].content_store 	decision_no[8] 	296491
scalar geant_cost_network.node[8].content_store 	decision_ratio[8] 	0
scalar geant_cost_network.node[8].content_store 	correction_factor[8] 	1.6037774021574e-316
scalar geant_cost_network.node[8].content_store 	xi[8] 	1
scalar geant_cost_network.node[9].core_layer 	interests[9] 	401592
scalar geant_cost_network.node[9].core_layer 	data[9] 	353493
scalar geant_cost_network.node[9].content_store 	p_hit[9] 	0.11584643120381
scalar geant_cost_network.node[9].content_store 	hits[9] 	46523
scalar geant_cost_network.node[9].content_store 	misses[9] 	355069
scalar geant_cost_network.node[9].content_store 	decision_yes[9] 	0
scalar geant_cost_network.node[9].content_store 	decision_no[9] 	353493
scalar geant_cost_network.node[9].content_store 	decision_ratio[9] 	0
scalar geant_cost_network.node[9].content_store 	correction_factor[9] 	1.6051161224314e-316
scalar geant_cost_network.node[9].content_store 	xi[9] 	1
scalar geant_cost_network.node[10].core_layer 	interests[10] 	180511
scalar geant_cost_network.node[10].core_layer 	data[10] 	166222
scalar geant_cost_network.node[10].content_store 	p_hit[10] 	0.074377738752763
scalar geant_cost_network.node[10].content_store 	hits[10] 	13426
scalar geant_cost_network.node[10].content_store 	misses[10] 	167085
scalar geant_cost_network.node[10].content_store 	decision_yes[10] 	2
scalar geant_cost_network.node[10].content_store 	decision_no[10] 	166220
scalar geant_cost_network.node[10].content_store 	decision_ratio[10] 	1.2032101647195e-05
scalar geant_cost_network.node[10].content_store 	correction_factor[10] 	1.6053595979816e-316
scalar geant_cost_network.node[10].content_store 	xi[10] 	1
scalar geant_cost_network.node[11].core_layer 	interests[11] 	0
scalar geant_cost_network.node[11].core_layer 	data[11] 	0
scalar geant_cost_network.node[11].content_store 	p_hit[11] 	-nan
scalar geant_cost_network.node[11].content_store 	hits[11] 	0
scalar geant_cost_network.node[11].content_store 	misses[11] 	0
scalar geant_cost_network.node[11].content_store 	decision_yes[11] 	0
scalar geant_cost_network.node[11].content_store 	decision_no[11] 	0
scalar geant_cost_network.node[11].content_store 	decision_ratio[11] 	0
scalar geant_cost_network.node[11].content_store 	correction_factor[11] 	1.605605445047e-316
scalar geant_cost_network.node[11].content_store 	xi[11] 	1
scalar geant_cost_network.node[12].core_layer 	interests[12] 	272975
scalar geant_cost_network.node[12].core_layer 	data[12] 	241660
scalar geant_cost_network.node[12].content_store 	p_hit[12] 	0.11002472753915
scalar geant_cost_network.node[12].content_store 	hits[12] 	30034
scalar geant_cost_network.node[12].content_store 	misses[12] 	242941
scalar geant_cost_network.node[12].content_store 	decision_yes[12] 	0
scalar geant_cost_network.node[12].content_store 	decision_no[12] 	241660
scalar geant_cost_network.node[12].content_store 	decision_ratio[12] 	0
scalar geant_cost_network.node[12].content_store 	correction_factor[12] 	1.6040809560902e-316
scalar geant_cost_network.node[12].content_store 	xi[12] 	1
scalar geant_cost_network.node[13].core_layer 	interests[13] 	0
scalar geant_cost_network.node[13].core_layer 	data[13] 	0
scalar geant_cost_network.node[13].content_store 	p_hit[13] 	-nan
scalar geant_cost_network.node[13].content_store 	hits[13] 	0
scalar geant_cost_network.node[13].content_store 	misses[13] 	0
scalar geant_cost_network.node[13].content_store 	decision_yes[13] 	0
scalar geant_cost_network.node[13].content_store 	decision_no[13] 	0
scalar geant_cost_network.node[13].content_store 	decision_ratio[13] 	0
scalar geant_cost_network.node[13].content_store 	correction_factor[13] 	1.6061050442281e-316
scalar geant_cost_network.node[13].content_store 	xi[13] 	1
scalar geant_cost_network.node[14].core_layer 	interests[14] 	41794
scalar geant_cost_network.node[14].core_layer 	data[14] 	40486
scalar geant_cost_network.node[14].content_store 	p_hit[14] 	0.031296358328947
scalar geant_cost_network.node[14].content_store 	hits[14] 	1308
scalar geant_cost_network.node[14].content_store 	misses[14] 	40486
scalar geant_cost_network.node[14].content_store 	decision_yes[14] 	0
scalar geant_cost_network.node[14].content_store 	decision_no[14] 	40486
scalar geant_cost_network.node[14].content_store 	decision_ratio[14] 	0
scalar geant_cost_network.node[14].content_store 	correction_factor[14] 	0
scalar geant_cost_network.node[14].content_store 	xi[14] 	1
scalar geant_cost_network.node[15].core_layer 	interests[15] 	0
scalar geant_cost_network.node[15].core_layer 	data[15] 	0
scalar geant_cost_network.node[15].content_store 	p_hit[15] 	-nan
scalar geant_cost_network.node[15].content_store 	hits[15] 	0
scalar geant_cost_network.node[15].content_store 	misses[15] 	0
scalar geant_cost_network.node[15].content_store 	decision_yes[15] 	0
scalar geant_cost_network.node[15].content_store 	decision_no[15] 	0
scalar geant_cost_network.node[15].content_store 	decision_ratio[15] 	0
scalar geant_cost_network.node[15].content_store 	correction_factor[15] 	0
scalar geant_cost_network.node[15].content_store 	xi[15] 	1
scalar geant_cost_network.node[16].core_layer 	interests[16] 	0
scalar geant_cost_network.node[16].core_layer 	data[16] 	0
scalar geant_cost_network.node[16].content_store 	p_hit[16] 	-nan
scalar geant_cost_network.node[16].content_store 	hits[16] 	0
scalar geant_cost_network.node[16].content_store 	misses[16] 	0
scalar geant_cost_network.node[16].content_store 	decision_yes[16] 	0
scalar geant_cost_network.node[16].content_store 	decision_no[16] 	0
scalar geant_cost_network.node[16].content_store 	decision_ratio[16] 	0
scalar geant_cost_network.node[16].content_store 	correction_factor[16] 	0
scalar geant_cost_network.node[16].content_store 	xi[16] 	1
scalar geant_cost_network.node[17].core_layer 	interests[17] 	0
scalar geant_cost_network.node[17].core_layer 	data[17] 	0
scalar geant_cost_network.node[17].content_store 	p_hit[17] 	-nan
scalar geant_cost_network.node[17].content_store 	hits[17] 	0
scalar geant_cost_network.node[17].content_store 	misses[17] 	0
scalar geant_cost_network.node[17].content_store 	decision_yes[17] 	0
scalar geant_cost_network.node[17].content_store 	decision_no[17] 	0
scalar geant_cost_network.node[17].content_store 	decision_ratio[17] 	0
scalar geant_cost_network.node[17].content_store 	correction_factor[17] 	0
scalar geant_cost_network.node[17].content_store 	xi[17] 	1
scalar geant_cost_network.node[18].core_layer 	interests[18] 	123753
scalar geant_cost_network.node[18].core_layer 	data[18] 	119735
scalar geant_cost_network.node[18].content_store 	p_hit[18] 	0.032484060992461
scalar geant_cost_network.node[18].content_store 	hits[18] 	4020
scalar geant_cost_network.node[18].content_store 	misses[18] 	119733
scalar geant_cost_network.node[18].content_store 	decision_yes[18] 	0
scalar geant_cost_network.node[18].content_store 	decision_no[18] 	119735
scalar geant_cost_network.node[18].content_store 	decision_ratio[18] 	0
scalar geant_cost_network.node[18].content_store 	correction_factor[18] 	0
scalar geant_cost_network.node[18].content_store 	xi[18] 	1
scalar geant_cost_network.node[19].core_layer 	interests[19] 	0
scalar geant_cost_network.node[19].core_layer 	data[19] 	0
scalar geant_cost_network.node[19].content_store 	p_hit[19] 	-nan
scalar geant_cost_network.node[19].content_store 	hits[19] 	0
scalar geant_cost_network.node[19].content_store 	misses[19] 	0
scalar geant_cost_network.node[19].content_store 	decision_yes[19] 	0
scalar geant_cost_network.node[19].content_store 	decision_no[19] 	0
scalar geant_cost_network.node[19].content_store 	decision_ratio[19] 	0
scalar geant_cost_network.node[19].content_store 	correction_factor[19] 	0
scalar geant_cost_network.node[19].content_store 	xi[19] 	1
scalar geant_cost_network.node[20].core_layer 	interests[20] 	180200
scalar geant_cost_network.node[20].core_layer 	data[20] 	171242
scalar geant_cost_network.node[20].content_store 	p_hit[20] 	0.04054384017758
scalar geant_cost_network.node[20].content_store 	hits[20] 	7306
scalar geant_cost_network.node[20].content_store 	misses[20] 	172894
scalar geant_cost_network.node[20].content_store 	decision_yes[20] 	0
scalar geant_cost_network.node[20].content_store 	decision_no[20] 	171242
scalar geant_cost_network.node[20].content_store 	decision_ratio[20] 	0
scalar geant_cost_network.node[20].content_store 	correction_factor[20] 	0
scalar geant_cost_network.node[20].content_store 	xi[20] 	1
scalar geant_cost_network.node[21].core_layer 	interests[21] 	198727
scalar geant_cost_network.node[21].core_layer 	data[21] 	144467
scalar geant_cost_network.node[21].content_store 	p_hit[21] 	0.27303788614531
scalar geant_cost_network.node[21].content_store 	hits[21] 	54260
scalar geant_cost_network.node[21].content_store 	misses[21] 	144467
scalar geant_cost_network.node[21].content_store 	decision_yes[21] 	0
scalar geant_cost_network.node[21].content_store 	decision_no[21] 	144467
scalar geant_cost_network.node[21].content_store 	decision_ratio[21] 	0
scalar geant_cost_network.node[21].content_store 	correction_factor[21] 	0
scalar geant_cost_network.node[21].content_store 	xi[21] 	1
scalar geant_cost_network.node[22].core_layer 	interests[22] 	346261
scalar geant_cost_network.node[22].core_layer 	repo_load[22] 	346261
scalar geant_cost_network.node[22].core_layer 	data[22] 	0
scalar geant_cost_network.node[22].content_store 	p_hit[22] 	0
scalar geant_cost_network.node[22].content_store 	hits[22] 	0
scalar geant_cost_network.node[22].content_store 	misses[22] 	346261
scalar geant_cost_network.node[22].content_store 	decision_yes[22] 	0
scalar geant_cost_network.node[22].content_store 	decision_no[22] 	346261
scalar geant_cost_network.node[22].content_store 	decision_ratio[22] 	0
scalar geant_cost_network.node[23].core_layer 	interests[23] 	158248
scalar geant_cost_network.node[23].core_layer 	repo_load[23] 	158248
scalar geant_cost_network.node[23].core_layer 	data[23] 	0
scalar geant_cost_network.node[23].content_store 	p_hit[23] 	0
scalar geant_cost_network.node[23].content_store 	hits[23] 	0
scalar geant_cost_network.node[23].content_store 	misses[23] 	158248
scalar geant_cost_network.node[23].content_store 	decision_yes[23] 	0
scalar geant_cost_network.node[23].content_store 	decision_no[23] 	158248
scalar geant_cost_network.node[23].content_store 	decision_ratio[23] 	0
scalar geant_cost_network.node[24].core_layer 	interests[24] 	144467
scalar geant_cost_network.node[24].core_layer 	repo_load[24] 	144467
scalar geant_cost_network.node[24].core_layer 	data[24] 	0
scalar geant_cost_network.node[24].content_store 	p_hit[24] 	0
scalar geant_cost_network.node[24].content_store 	hits[24] 	0
scalar geant_cost_network.node[24].content_store 	misses[24] 	144467
scalar geant_cost_network.node[24].content_store 	decision_yes[24] 	0
scalar geant_cost_network.node[24].content_store 	decision_no[24] 	144467
scalar geant_cost_network.node[24].content_store 	decision_ratio[24] 	0
scalar geant_cost_network.client[5] 	hdistance[5] 	3.4951250363803
scalar geant_cost_network.client[5] 	downloads[5] 	178668
scalar geant_cost_network.client[5] 	avg_time[5] 	0.00928618682
scalar geant_cost_network.client[5] 	interests_sent[5] 	180385
scalar geant_cost_network.client[9] 	hdistance[9] 	3.3601456397427
scalar geant_cost_network.client[9] 	downloads[9] 	179072
scalar geant_cost_network.client[9] 	avg_time[9] 	0.003333083499
scalar geant_cost_network.client[9] 	interests_sent[9] 	179622
scalar geant_cost_network.client[10] 	hdistance[10] 	4.2413219184182
scalar geant_cost_network.client[10] 	downloads[10] 	179648
scalar geant_cost_network.client[10] 	avg_time[10] 	0.005122955847
scalar geant_cost_network.client[10] 	interests_sent[10] 	180511
scalar geant_cost_network.client[12] 	hdistance[12] 	3.8367168679726
scalar geant_cost_network.client[12] 	downloads[12] 	179743
scalar geant_cost_network.client[12] 	avg_time[12] 	0.004408980465
scalar geant_cost_network.client[12] 	interests_sent[12] 	180636
scalar geant_cost_network.client[20] 	hdistance[20] 	4.0132625400452
scalar geant_cost_network.client[20] 	downloads[20] 	178548
scalar geant_cost_network.client[20] 	avg_time[20] 	0.00719639511
scalar geant_cost_network.client[20] 	interests_sent[20] 	180200
