version 2
run General-308-20140424-23:51:14-11158
attr D lce
attr F nrr
attr R lru
attr a 0.8
attr configname General
attr csize 30
attr ctlg 10^3
attr datetime 20140424-23:51:14
attr experiment General
attr inifile omnetpp.ini
attr iterationvars "$net=one_cache_scenario, $rep=1, $priceratiovalue=8, $a=0.8, $ctlg=10^3, $F=nrr, $ttl=1000, $D=lce, $R=lru, $csize=30"
attr iterationvars2 "$net=one_cache_scenario, $rep=1, $priceratiovalue=8, $a=0.8, $ctlg=10^3, $F=nrr, $ttl=1000, $D=lce, $R=lru, $csize=30, $repetition=0"
attr measurement "$net=one_cache_scenario, $rep=1, $priceratiovalue=8, $a=0.8, $ctlg=10^3, $F=nrr, $ttl=1000, $D=lce, $R=lru, $csize=30"
attr net one_cache_scenario
attr network networks.${net=one_cache_scenario}_network
attr priceratiovalue 8
attr processid 11158
attr rep 1
attr repetition 0
attr replication #0
attr resultdir results
attr runnumber 308
attr seedset 1
attr ttl 1000

scalar . 	a 	0.8
scalar . 	csize 	30
scalar . 	priceratiovalue 	8
scalar . 	rep 	1
scalar . 	ttl 	1000
scalar one_cache_scenario_network.content_distribution 	repo-0 	3
scalar one_cache_scenario_network.content_distribution 	repo-1 	4
scalar one_cache_scenario_network.content_distribution 	client-0 	0
scalar one_cache_scenario_network.content_distribution 	repo-0_card 	504
scalar one_cache_scenario_network.content_distribution 	repo-1_card 	496
scalar one_cache_scenario_network.statistics 	p_hit 	0.073183932562961
scalar one_cache_scenario_network.statistics 	interests 	93859.4
scalar one_cache_scenario_network.statistics 	data 	57993.6
scalar one_cache_scenario_network.statistics 	hdistance 	1.6169610046339
scalar one_cache_scenario_network.statistics 	avg_time 	0
scalar one_cache_scenario_network.statistics 	downloads 	179329
scalar one_cache_scenario_network.statistics 	total_cost 	73211
scalar one_cache_scenario_network.statistics 	interests_sent 	179329
scalar one_cache_scenario_network.node[0].core_layer 	interests[0] 	179329
scalar one_cache_scenario_network.node[0].core_layer 	data[0] 	144984
scalar one_cache_scenario_network.node[0].core_layer 	repo_int[0] 	144984
scalar one_cache_scenario_network.node[0].content_store 	p_hit[0] 	0.19151949768303
scalar one_cache_scenario_network.node[0].content_store 	hits[0] 	34345
scalar one_cache_scenario_network.node[0].content_store 	misses[0] 	144984
scalar one_cache_scenario_network.node[0].content_store 	decision_yes[0] 	144984
scalar one_cache_scenario_network.node[0].content_store 	decision_no[0] 	0
scalar one_cache_scenario_network.node[1].core_layer 	interests[1] 	71566
scalar one_cache_scenario_network.node[1].core_layer 	data[1] 	71566
scalar one_cache_scenario_network.node[1].content_store 	p_hit[1] 	0
scalar one_cache_scenario_network.node[1].content_store 	hits[1] 	0
scalar one_cache_scenario_network.node[1].content_store 	misses[1] 	71566
scalar one_cache_scenario_network.node[1].content_store 	decision_yes[1] 	0
scalar one_cache_scenario_network.node[1].content_store 	decision_no[1] 	71566
scalar one_cache_scenario_network.node[2].core_layer 	interests[2] 	73418
scalar one_cache_scenario_network.node[2].core_layer 	data[2] 	73418
scalar one_cache_scenario_network.node[2].content_store 	p_hit[2] 	0
scalar one_cache_scenario_network.node[2].content_store 	hits[2] 	0
scalar one_cache_scenario_network.node[2].content_store 	misses[2] 	73418
scalar one_cache_scenario_network.node[2].content_store 	decision_yes[2] 	0
scalar one_cache_scenario_network.node[2].content_store 	decision_no[2] 	73418
scalar one_cache_scenario_network.node[3].core_layer 	interests[3] 	71566
scalar one_cache_scenario_network.node[3].core_layer 	repo_load[3] 	71566
scalar one_cache_scenario_network.node[3].core_layer 	data[3] 	0
scalar one_cache_scenario_network.node[3].content_store 	p_hit[3] 	0
scalar one_cache_scenario_network.node[3].content_store 	hits[3] 	0
scalar one_cache_scenario_network.node[3].content_store 	misses[3] 	71566
scalar one_cache_scenario_network.node[3].content_store 	decision_yes[3] 	0
scalar one_cache_scenario_network.node[3].content_store 	decision_no[3] 	71566
scalar one_cache_scenario_network.node[4].core_layer 	interests[4] 	73418
scalar one_cache_scenario_network.node[4].core_layer 	repo_load[4] 	73418
scalar one_cache_scenario_network.node[4].core_layer 	data[4] 	0
scalar one_cache_scenario_network.node[4].content_store 	p_hit[4] 	0
scalar one_cache_scenario_network.node[4].content_store 	hits[4] 	0
scalar one_cache_scenario_network.node[4].content_store 	misses[4] 	73418
scalar one_cache_scenario_network.node[4].content_store 	decision_yes[4] 	0
scalar one_cache_scenario_network.node[4].content_store 	decision_no[4] 	73418
scalar one_cache_scenario_network.client[0] 	hdistance[0] 	1.6169610046339
scalar one_cache_scenario_network.client[0] 	downloads[0] 	179329
scalar one_cache_scenario_network.client[0] 	avg_time[0] 	0
scalar one_cache_scenario_network.client[0] 	interests_sent[0] 	179329
