version 2
run General-29-20140626-17:55:40-10866
attr D lce
attr F spr
attr R lru
attr a 1
attr configname General
attr csize 1e3
attr ctlg 1e5
attr datetime 20140626-17:55:40
attr experiment General
attr inifile omnetpp.ini
attr iterationvars "$net=abilene_cost, $rep=4, $priceratiovalue=10, $weights=0.333_0.333_0.334, $lambda=100, $a=1, $ctlg=1e5, $F=spr, $ttl=1000, $D=lce, $xi=1, $R=lru, $csize=1e3, $pricebits=0, $mytime=1800"
attr iterationvars2 "$net=abilene_cost, $rep=4, $priceratiovalue=10, $weights=0.333_0.333_0.334, $lambda=100, $a=1, $ctlg=1e5, $F=spr, $ttl=1000, $D=lce, $xi=1, $R=lru, $csize=1e3, $pricebits=0, $mytime=1800, $repetition=0"
attr lambda 100
attr measurement "$net=abilene_cost, $rep=4, $priceratiovalue=10, $weights=0.333_0.333_0.334, $lambda=100, $a=1, $ctlg=1e5, $F=spr, $ttl=1000, $D=lce, $xi=1, $R=lru, $csize=1e3, $pricebits=0, $mytime=1800"
attr mytime 1800
attr net abilene_cost
attr network "networks.${net=geant_cost, abilene_cost}_network"
attr pricebits 0
attr priceratiovalue 10
attr processid 10866
attr rep 4
attr repetition 0
attr replication #0
attr resultdir results
attr runnumber 29
attr seedset 4
attr ttl 1000
attr weights 0.333_0.333_0.334
attr xi 1

scalar . 	a 	1
scalar . 	csize 	1e3
scalar . 	ctlg 	1e5
scalar . 	lambda 	100
scalar . 	mytime 	1800
scalar . 	pricebits 	0
scalar . 	priceratiovalue 	10
scalar . 	rep 	4
scalar . 	ttl 	1000
scalar . 	xi 	1
scalar abilene_cost_network.content_distribution 	repo-0 	11
scalar abilene_cost_network.content_distribution 	repo-1 	12
scalar abilene_cost_network.content_distribution 	repo-2 	13
scalar abilene_cost_network.content_distribution 	client-0 	5
scalar abilene_cost_network.content_distribution 	client-1 	0
scalar abilene_cost_network.content_distribution 	client-2 	9
scalar abilene_cost_network.content_distribution 	repo-0_card 	33272
scalar abilene_cost_network.content_distribution 	repo-1_card 	33152
scalar abilene_cost_network.content_distribution 	repo-2_card 	33576
scalar abilene_cost_network.statistics 	repo_popularity[0] 	0.28234107170654
scalar abilene_cost_network.statistics 	repo_popularity[1] 	0.30413978820018
scalar abilene_cost_network.statistics 	repo_popularity[2] 	0.41351914009327
scalar abilene_cost_network.statistics 	stabilization_time 	64.1
scalar abilene_cost_network.node[1].face$o[4].channel 	price[1] 	0
scalar abilene_cost_network.node[1].face$o[4].channel 	represented_price[1] 	0
scalar abilene_cost_network.node[7].face$o[4].channel 	price[7] 	0
scalar abilene_cost_network.node[7].face$o[4].channel 	represented_price[7] 	0
scalar abilene_cost_network.node[10].face$o[4].channel 	price[10] 	0
scalar abilene_cost_network.node[10].face$o[4].channel 	represented_price[10] 	0
scalar abilene_cost_network.node[11].face$o[1].channel 	price[11] 	0
scalar abilene_cost_network.node[11].face$o[1].channel 	represented_price[11] 	0
scalar abilene_cost_network.node[12].face$o[1].channel 	price[12] 	1
scalar abilene_cost_network.node[12].face$o[1].channel 	represented_price[12] 	1
scalar abilene_cost_network.node[13].face$o[1].channel 	price[13] 	10
scalar abilene_cost_network.node[13].face$o[1].channel 	represented_price[13] 	10
scalar abilene_cost_network.statistics 	p_hit 	0.10696667817813
scalar abilene_cost_network.statistics 	interests 	129477.57142857
scalar abilene_cost_network.statistics 	data 	90849.142857143
scalar abilene_cost_network.statistics 	hdistance 	2.9953849658856
scalar abilene_cost_network.statistics 	avg_time 	0.01112942427
scalar abilene_cost_network.statistics 	downloads 	540236
scalar abilene_cost_network.statistics 	total_cost 	1315633
scalar abilene_cost_network.statistics 	total_replicas 	100000
scalar abilene_cost_network.statistics 	inner_hit 	0.35890980978683
scalar abilene_cost_network.statistics 	interests_sent 	540801
scalar abilene_cost_network.node[0].core_layer 	interests[0] 	180320
scalar abilene_cost_network.node[0].core_layer 	data[0] 	129656
scalar abilene_cost_network.node[0].core_layer 	repo_int[0] 	346340
scalar abilene_cost_network.node[0].content_store 	p_hit[0] 	0.27989130434783
scalar abilene_cost_network.node[0].content_store 	hits[0] 	50470
scalar abilene_cost_network.node[0].content_store 	misses[0] 	129850
scalar abilene_cost_network.node[0].content_store 	decision_yes[0] 	129656
scalar abilene_cost_network.node[0].content_store 	decision_no[0] 	0
scalar abilene_cost_network.node[0].content_store 	decision_ratio[0] 	1
scalar abilene_cost_network.node[1].core_layer 	interests[1] 	215124
scalar abilene_cost_network.node[1].core_layer 	data[1] 	204931
scalar abilene_cost_network.node[1].content_store 	p_hit[1] 	0.04738197504695
scalar abilene_cost_network.node[1].content_store 	hits[1] 	10193
scalar abilene_cost_network.node[1].content_store 	misses[1] 	204931
scalar abilene_cost_network.node[1].content_store 	decision_yes[1] 	204931
scalar abilene_cost_network.node[1].content_store 	decision_no[1] 	0
scalar abilene_cost_network.node[1].content_store 	decision_ratio[1] 	1
scalar abilene_cost_network.node[2].core_layer 	interests[2] 	126220
scalar abilene_cost_network.node[2].core_layer 	data[2] 	125856
scalar abilene_cost_network.node[2].content_store 	p_hit[2] 	0.0028917762636666
scalar abilene_cost_network.node[2].content_store 	hits[2] 	365
scalar abilene_cost_network.node[2].content_store 	misses[2] 	125855
scalar abilene_cost_network.node[2].content_store 	decision_yes[2] 	125856
scalar abilene_cost_network.node[2].content_store 	decision_no[2] 	0
scalar abilene_cost_network.node[2].content_store 	decision_ratio[2] 	1
scalar abilene_cost_network.node[3].core_layer 	interests[3] 	125855
scalar abilene_cost_network.node[3].core_layer 	data[3] 	125853
scalar abilene_cost_network.node[3].content_store 	p_hit[3] 	2.3836955226252e-05
scalar abilene_cost_network.node[3].content_store 	hits[3] 	3
scalar abilene_cost_network.node[3].content_store 	misses[3] 	125852
scalar abilene_cost_network.node[3].content_store 	decision_yes[3] 	125853
scalar abilene_cost_network.node[3].content_store 	decision_no[3] 	0
scalar abilene_cost_network.node[3].content_store 	decision_ratio[3] 	1
scalar abilene_cost_network.node[4].core_layer 	interests[4] 	87013
scalar abilene_cost_network.node[4].core_layer 	data[4] 	83776
scalar abilene_cost_network.node[4].content_store 	p_hit[4] 	0.037212830266742
scalar abilene_cost_network.node[4].content_store 	hits[4] 	3238
scalar abilene_cost_network.node[4].content_store 	misses[4] 	83775
scalar abilene_cost_network.node[4].content_store 	decision_yes[4] 	83776
scalar abilene_cost_network.node[4].content_store 	decision_no[4] 	0
scalar abilene_cost_network.node[4].content_store 	decision_ratio[4] 	1
scalar abilene_cost_network.node[5].core_layer 	interests[5] 	180285
scalar abilene_cost_network.node[5].core_layer 	data[5] 	129463
scalar abilene_cost_network.node[5].content_store 	p_hit[5] 	0.28072773663921
scalar abilene_cost_network.node[5].content_store 	hits[5] 	50611
scalar abilene_cost_network.node[5].content_store 	misses[5] 	129674
scalar abilene_cost_network.node[5].content_store 	decision_yes[5] 	129463
scalar abilene_cost_network.node[5].content_store 	decision_no[5] 	0
scalar abilene_cost_network.node[5].content_store 	decision_ratio[5] 	1
scalar abilene_cost_network.node[6].core_layer 	interests[6] 	42448
scalar abilene_cost_network.node[6].core_layer 	data[6] 	36445
scalar abilene_cost_network.node[6].content_store 	p_hit[6] 	0.14144364869959
scalar abilene_cost_network.node[6].content_store 	hits[6] 	6004
scalar abilene_cost_network.node[6].content_store 	misses[6] 	36444
scalar abilene_cost_network.node[6].content_store 	decision_yes[6] 	36445
scalar abilene_cost_network.node[6].content_store 	decision_no[6] 	0
scalar abilene_cost_network.node[6].content_store 	decision_ratio[6] 	1
scalar abilene_cost_network.node[7].core_layer 	interests[7] 	115256
scalar abilene_cost_network.node[7].core_layer 	data[7] 	106933
scalar abilene_cost_network.node[7].content_store 	p_hit[7] 	0.072213160269314
scalar abilene_cost_network.node[7].content_store 	hits[7] 	8323
scalar abilene_cost_network.node[7].content_store 	misses[7] 	106933
scalar abilene_cost_network.node[7].content_store 	decision_yes[7] 	106933
scalar abilene_cost_network.node[7].content_store 	decision_no[7] 	0
scalar abilene_cost_network.node[7].content_store 	decision_ratio[7] 	1
scalar abilene_cost_network.node[8].core_layer 	interests[8] 	42580
scalar abilene_cost_network.node[8].core_layer 	data[8] 	36735
scalar abilene_cost_network.node[8].content_store 	p_hit[8] 	0.13727101925787
scalar abilene_cost_network.node[8].content_store 	hits[8] 	5845
scalar abilene_cost_network.node[8].content_store 	misses[8] 	36735
scalar abilene_cost_network.node[8].content_store 	decision_yes[8] 	36735
scalar abilene_cost_network.node[8].content_store 	decision_no[8] 	0
scalar abilene_cost_network.node[8].content_store 	decision_ratio[8] 	1
scalar abilene_cost_network.node[9].core_layer 	interests[9] 	180196
scalar abilene_cost_network.node[9].core_layer 	data[9] 	129314
scalar abilene_cost_network.node[9].content_store 	p_hit[9] 	0.28148238584652
scalar abilene_cost_network.node[9].content_store 	hits[9] 	50722
scalar abilene_cost_network.node[9].content_store 	misses[9] 	129474
scalar abilene_cost_network.node[9].content_store 	decision_yes[9] 	129314
scalar abilene_cost_network.node[9].content_store 	decision_no[9] 	0
scalar abilene_cost_network.node[9].content_store 	decision_ratio[9] 	1
scalar abilene_cost_network.node[10].core_layer 	interests[10] 	171049
scalar abilene_cost_network.node[10].core_layer 	data[10] 	162926
scalar abilene_cost_network.node[10].content_store 	p_hit[10] 	0.047489315927015
scalar abilene_cost_network.node[10].content_store 	hits[10] 	8123
scalar abilene_cost_network.node[10].content_store 	misses[10] 	162926
scalar abilene_cost_network.node[10].content_store 	decision_yes[10] 	162926
scalar abilene_cost_network.node[10].content_store 	decision_no[10] 	0
scalar abilene_cost_network.node[10].content_store 	decision_ratio[10] 	1
scalar abilene_cost_network.node[11].core_layer 	interests[11] 	118537
scalar abilene_cost_network.node[11].core_layer 	repo_load[11] 	118537
scalar abilene_cost_network.node[11].core_layer 	data[11] 	0
scalar abilene_cost_network.node[11].content_store 	p_hit[11] 	0
scalar abilene_cost_network.node[11].content_store 	hits[11] 	0
scalar abilene_cost_network.node[11].content_store 	misses[11] 	118537
scalar abilene_cost_network.node[11].content_store 	decision_yes[11] 	0
scalar abilene_cost_network.node[11].content_store 	decision_no[11] 	118537
scalar abilene_cost_network.node[11].content_store 	decision_ratio[11] 	0
scalar abilene_cost_network.node[12].core_layer 	interests[12] 	106933
scalar abilene_cost_network.node[12].core_layer 	repo_load[12] 	106933
scalar abilene_cost_network.node[12].core_layer 	data[12] 	0
scalar abilene_cost_network.node[12].content_store 	p_hit[12] 	0
scalar abilene_cost_network.node[12].content_store 	hits[12] 	0
scalar abilene_cost_network.node[12].content_store 	misses[12] 	106933
scalar abilene_cost_network.node[12].content_store 	decision_yes[12] 	0
scalar abilene_cost_network.node[12].content_store 	decision_no[12] 	106933
scalar abilene_cost_network.node[12].content_store 	decision_ratio[12] 	0
scalar abilene_cost_network.node[13].core_layer 	interests[13] 	120870
scalar abilene_cost_network.node[13].core_layer 	repo_load[13] 	120870
scalar abilene_cost_network.node[13].core_layer 	data[13] 	0
scalar abilene_cost_network.node[13].content_store 	p_hit[13] 	0
scalar abilene_cost_network.node[13].content_store 	hits[13] 	0
scalar abilene_cost_network.node[13].content_store 	misses[13] 	120870
scalar abilene_cost_network.node[13].content_store 	decision_yes[13] 	0
scalar abilene_cost_network.node[13].content_store 	decision_no[13] 	120870
scalar abilene_cost_network.node[13].content_store 	decision_ratio[13] 	0
scalar abilene_cost_network.client[0] 	hdistance[0] 	2.750036085851
scalar abilene_cost_network.client[0] 	downloads[0] 	180126
scalar abilene_cost_network.client[0] 	avg_time[0] 	0.01070982737
scalar abilene_cost_network.client[0] 	interests_sent[0] 	180320
scalar abilene_cost_network.client[5] 	hdistance[5] 	3.792463098504
scalar abilene_cost_network.client[5] 	downloads[5] 	180074
scalar abilene_cost_network.client[5] 	avg_time[5] 	0.013566584278
scalar abilene_cost_network.client[5] 	interests_sent[5] 	180285
scalar abilene_cost_network.client[9] 	hdistance[9] 	2.4436557133018
scalar abilene_cost_network.client[9] 	downloads[9] 	180036
scalar abilene_cost_network.client[9] 	avg_time[9] 	0.009111861163
scalar abilene_cost_network.client[9] 	interests_sent[9] 	180196
