version 2
run General-37-20140630-13:24:54-25916
attr D lce
attr F spr
attr R lru
attr a 1
attr configname General
attr csize 1e3
attr ctlg 1e5
attr datetime 20140630-13:24:54
attr experiment General
attr inifile omnetpp.ini
attr iterationvars "$net=abilene_cost, $rep=12, $priceratiovalue=10, $weights=0.333_0.333_0.334, $lambda=100, $a=1, $ctlg=1e5, $F=spr, $ttl=1000, $D=lce, $xi=1, $R=lru, $csize=1e3, $pricebits=0, $window=60, $variance=0.05, $mytime=1800"
attr iterationvars2 "$net=abilene_cost, $rep=12, $priceratiovalue=10, $weights=0.333_0.333_0.334, $lambda=100, $a=1, $ctlg=1e5, $F=spr, $ttl=1000, $D=lce, $xi=1, $R=lru, $csize=1e3, $pricebits=0, $window=60, $variance=0.05, $mytime=1800, $repetition=0"
attr lambda 100
attr measurement "$net=abilene_cost, $rep=12, $priceratiovalue=10, $weights=0.333_0.333_0.334, $lambda=100, $a=1, $ctlg=1e5, $F=spr, $ttl=1000, $D=lce, $xi=1, $R=lru, $csize=1e3, $pricebits=0, $window=60, $variance=0.05, $mytime=1800"
attr mytime 1800
attr net abilene_cost
attr network "networks.${net=geant_cost, abilene_cost}_network"
attr pricebits 0
attr priceratiovalue 10
attr processid 25916
attr rep 12
attr repetition 0
attr replication #0
attr resultdir results
attr runnumber 37
attr seedset 12
attr ttl 1000
attr variance 0.05
attr weights 0.333_0.333_0.334
attr window 60
attr xi 1

scalar . 	a 	1
scalar . 	csize 	1e3
scalar . 	ctlg 	1e5
scalar . 	lambda 	100
scalar . 	mytime 	1800
scalar . 	pricebits 	0
scalar . 	priceratiovalue 	10
scalar . 	rep 	12
scalar . 	ttl 	1000
scalar . 	variance 	0.05
scalar . 	window 	60
scalar . 	xi 	1
scalar abilene_cost_network.content_distribution 	repo-0 	11
scalar abilene_cost_network.content_distribution 	repo-1 	12
scalar abilene_cost_network.content_distribution 	repo-2 	13
scalar abilene_cost_network.content_distribution 	client-0 	5
scalar abilene_cost_network.content_distribution 	client-1 	0
scalar abilene_cost_network.content_distribution 	client-2 	9
scalar abilene_cost_network.content_distribution 	repo-0_card 	33376
scalar abilene_cost_network.content_distribution 	repo-1_card 	33439
scalar abilene_cost_network.content_distribution 	repo-2_card 	33185
scalar abilene_cost_network.statistics 	repo_popularity[0] 	0.3146103286495
scalar abilene_cost_network.statistics 	repo_popularity[1] 	0.33182472258399
scalar abilene_cost_network.statistics 	repo_popularity[2] 	0.35356494876651
scalar abilene_cost_network.statistics 	stabilization_time 	63.5
scalar abilene_cost_network.node[1].face$o[4].channel 	price[1] 	0
scalar abilene_cost_network.node[1].face$o[4].channel 	represented_price[1] 	0
scalar abilene_cost_network.node[7].face$o[4].channel 	price[7] 	0
scalar abilene_cost_network.node[7].face$o[4].channel 	represented_price[7] 	0
scalar abilene_cost_network.node[10].face$o[4].channel 	price[10] 	0
scalar abilene_cost_network.node[10].face$o[4].channel 	represented_price[10] 	0
scalar abilene_cost_network.node[11].face$o[1].channel 	price[11] 	0
scalar abilene_cost_network.node[11].face$o[1].channel 	represented_price[11] 	0
scalar abilene_cost_network.node[12].face$o[1].channel 	price[12] 	1
scalar abilene_cost_network.node[12].face$o[1].channel 	represented_price[12] 	1
scalar abilene_cost_network.node[13].face$o[1].channel 	price[13] 	10
scalar abilene_cost_network.node[13].face$o[1].channel 	represented_price[13] 	10
scalar abilene_cost_network.statistics 	p_hit 	0.10710819420745
scalar abilene_cost_network.statistics 	interests 	129306.5
scalar abilene_cost_network.statistics 	data 	90752.642857143
scalar abilene_cost_network.statistics 	hdistance 	2.9971251832437
scalar abilene_cost_network.statistics 	avg_time 	0.011187728821
scalar abilene_cost_network.statistics 	downloads 	539267
scalar abilene_cost_network.statistics 	total_cost 	1278322
scalar abilene_cost_network.statistics 	total_replicas 	100000
scalar abilene_cost_network.statistics 	inner_hit 	0.35956029202603
scalar abilene_cost_network.statistics 	interests_sent 	539763
scalar abilene_cost_network.node[0].core_layer 	interests[0] 	179262
scalar abilene_cost_network.node[0].core_layer 	data[0] 	128684
scalar abilene_cost_network.node[0].core_layer 	repo_int[0] 	345368
scalar abilene_cost_network.node[0].content_store 	p_hit[0] 	0.28125313786525
scalar abilene_cost_network.node[0].content_store 	hits[0] 	50418
scalar abilene_cost_network.node[0].content_store 	misses[0] 	128844
scalar abilene_cost_network.node[0].content_store 	decision_yes[0] 	128684
scalar abilene_cost_network.node[0].content_store 	decision_no[0] 	0
scalar abilene_cost_network.node[0].content_store 	decision_ratio[0] 	1
scalar abilene_cost_network.node[1].core_layer 	interests[1] 	209711
scalar abilene_cost_network.node[1].core_layer 	data[1] 	201493
scalar abilene_cost_network.node[1].content_store 	p_hit[1] 	0.039192030937814
scalar abilene_cost_network.node[1].content_store 	hits[1] 	8219
scalar abilene_cost_network.node[1].content_store 	misses[1] 	201492
scalar abilene_cost_network.node[1].content_store 	decision_yes[1] 	201493
scalar abilene_cost_network.node[1].content_store 	decision_no[1] 	0
scalar abilene_cost_network.node[1].content_store 	decision_ratio[1] 	1
scalar abilene_cost_network.node[2].core_layer 	interests[2] 	125365
scalar abilene_cost_network.node[2].core_layer 	data[2] 	124958
scalar abilene_cost_network.node[2].content_store 	p_hit[2] 	0.0032624735771547
scalar abilene_cost_network.node[2].content_store 	hits[2] 	409
scalar abilene_cost_network.node[2].content_store 	misses[2] 	124956
scalar abilene_cost_network.node[2].content_store 	decision_yes[2] 	124958
scalar abilene_cost_network.node[2].content_store 	decision_no[2] 	0
scalar abilene_cost_network.node[2].content_store 	decision_ratio[2] 	1
scalar abilene_cost_network.node[3].core_layer 	interests[3] 	124956
scalar abilene_cost_network.node[3].core_layer 	data[3] 	124954
scalar abilene_cost_network.node[3].content_store 	p_hit[3] 	3.2011267966324e-05
scalar abilene_cost_network.node[3].content_store 	hits[3] 	4
scalar abilene_cost_network.node[3].content_store 	misses[3] 	124952
scalar abilene_cost_network.node[3].content_store 	decision_yes[3] 	124954
scalar abilene_cost_network.node[3].content_store 	decision_no[3] 	0
scalar abilene_cost_network.node[3].content_store 	decision_ratio[3] 	1
scalar abilene_cost_network.node[4].core_layer 	interests[4] 	83694
scalar abilene_cost_network.node[4].core_layer 	data[4] 	80263
scalar abilene_cost_network.node[4].content_store 	p_hit[4] 	0.041018472052955
scalar abilene_cost_network.node[4].content_store 	hits[4] 	3433
scalar abilene_cost_network.node[4].content_store 	misses[4] 	80261
scalar abilene_cost_network.node[4].content_store 	decision_yes[4] 	80263
scalar abilene_cost_network.node[4].content_store 	decision_no[4] 	0
scalar abilene_cost_network.node[4].content_store 	decision_ratio[4] 	1
scalar abilene_cost_network.node[5].core_layer 	interests[5] 	179842
scalar abilene_cost_network.node[5].core_layer 	data[5] 	129091
scalar abilene_cost_network.node[5].content_store 	p_hit[5] 	0.281224630509
scalar abilene_cost_network.node[5].content_store 	hits[5] 	50576
scalar abilene_cost_network.node[5].content_store 	misses[5] 	129266
scalar abilene_cost_network.node[5].content_store 	decision_yes[5] 	129091
scalar abilene_cost_network.node[5].content_store 	decision_no[5] 	0
scalar abilene_cost_network.node[5].content_store 	decision_ratio[5] 	1
scalar abilene_cost_network.node[6].core_layer 	interests[6] 	45395
scalar abilene_cost_network.node[6].core_layer 	data[6] 	39668
scalar abilene_cost_network.node[6].content_store 	p_hit[6] 	0.12615926864192
scalar abilene_cost_network.node[6].content_store 	hits[6] 	5727
scalar abilene_cost_network.node[6].content_store 	misses[6] 	39668
scalar abilene_cost_network.node[6].content_store 	decision_yes[6] 	39668
scalar abilene_cost_network.node[6].content_store 	decision_no[6] 	0
scalar abilene_cost_network.node[6].content_store 	decision_ratio[6] 	1
scalar abilene_cost_network.node[7].core_layer 	interests[7] 	124575
scalar abilene_cost_network.node[7].core_layer 	data[7] 	115642
scalar abilene_cost_network.node[7].content_store 	p_hit[7] 	0.071707806542244
scalar abilene_cost_network.node[7].content_store 	hits[7] 	8933
scalar abilene_cost_network.node[7].content_store 	misses[7] 	115642
scalar abilene_cost_network.node[7].content_store 	decision_yes[7] 	115642
scalar abilene_cost_network.node[7].content_store 	decision_no[7] 	0
scalar abilene_cost_network.node[7].content_store 	decision_ratio[7] 	1
scalar abilene_cost_network.node[8].core_layer 	interests[8] 	45863
scalar abilene_cost_network.node[8].core_layer 	data[8] 	40216
scalar abilene_cost_network.node[8].content_store 	p_hit[8] 	0.12312757560561
scalar abilene_cost_network.node[8].content_store 	hits[8] 	5647
scalar abilene_cost_network.node[8].content_store 	misses[8] 	40216
scalar abilene_cost_network.node[8].content_store 	decision_yes[8] 	40216
scalar abilene_cost_network.node[8].content_store 	decision_no[8] 	0
scalar abilene_cost_network.node[8].content_store 	decision_ratio[8] 	1
scalar abilene_cost_network.node[9].core_layer 	interests[9] 	180659
scalar abilene_cost_network.node[9].core_layer 	data[9] 	129881
scalar abilene_cost_network.node[9].content_store 	p_hit[9] 	0.28017978622709
scalar abilene_cost_network.node[9].content_store 	hits[9] 	50617
scalar abilene_cost_network.node[9].content_store 	misses[9] 	130042
scalar abilene_cost_network.node[9].content_store 	decision_yes[9] 	129881
scalar abilene_cost_network.node[9].content_store 	decision_no[9] 	0
scalar abilene_cost_network.node[9].content_store 	decision_ratio[9] 	1
scalar abilene_cost_network.node[10].core_layer 	interests[10] 	165601
scalar abilene_cost_network.node[10].core_layer 	data[10] 	155687
scalar abilene_cost_network.node[10].content_store 	p_hit[10] 	0.059866788244032
scalar abilene_cost_network.node[10].content_store 	hits[10] 	9914
scalar abilene_cost_network.node[10].content_store 	misses[10] 	155687
scalar abilene_cost_network.node[10].content_store 	decision_yes[10] 	155687
scalar abilene_cost_network.node[10].content_store 	decision_no[10] 	0
scalar abilene_cost_network.node[10].content_store 	decision_ratio[10] 	1
scalar abilene_cost_network.node[11].core_layer 	interests[11] 	113458
scalar abilene_cost_network.node[11].core_layer 	repo_load[11] 	113458
scalar abilene_cost_network.node[11].core_layer 	data[11] 	0
scalar abilene_cost_network.node[11].content_store 	p_hit[11] 	0
scalar abilene_cost_network.node[11].content_store 	hits[11] 	0
scalar abilene_cost_network.node[11].content_store 	misses[11] 	113458
scalar abilene_cost_network.node[11].content_store 	decision_yes[11] 	0
scalar abilene_cost_network.node[11].content_store 	decision_no[11] 	113458
scalar abilene_cost_network.node[11].content_store 	decision_ratio[11] 	0
scalar abilene_cost_network.node[12].core_layer 	interests[12] 	115642
scalar abilene_cost_network.node[12].core_layer 	repo_load[12] 	115642
scalar abilene_cost_network.node[12].core_layer 	data[12] 	0
scalar abilene_cost_network.node[12].content_store 	p_hit[12] 	0
scalar abilene_cost_network.node[12].content_store 	hits[12] 	0
scalar abilene_cost_network.node[12].content_store 	misses[12] 	115642
scalar abilene_cost_network.node[12].content_store 	decision_yes[12] 	0
scalar abilene_cost_network.node[12].content_store 	decision_no[12] 	115642
scalar abilene_cost_network.node[12].content_store 	decision_ratio[12] 	0
scalar abilene_cost_network.node[13].core_layer 	interests[13] 	116268
scalar abilene_cost_network.node[13].core_layer 	repo_load[13] 	116268
scalar abilene_cost_network.node[13].core_layer 	data[13] 	0
scalar abilene_cost_network.node[13].content_store 	p_hit[13] 	0
scalar abilene_cost_network.node[13].content_store 	hits[13] 	0
scalar abilene_cost_network.node[13].content_store 	misses[13] 	116268
scalar abilene_cost_network.node[13].content_store 	decision_yes[13] 	0
scalar abilene_cost_network.node[13].content_store 	decision_no[13] 	116268
scalar abilene_cost_network.node[13].content_store 	decision_ratio[13] 	0
scalar abilene_cost_network.client[0] 	hdistance[0] 	2.7933188909113
scalar abilene_cost_network.client[0] 	downloads[0] 	179102
scalar abilene_cost_network.client[0] 	avg_time[0] 	0.010962063681
scalar abilene_cost_network.client[0] 	interests_sent[0] 	179262
scalar abilene_cost_network.client[5] 	hdistance[5] 	3.7458854436263
scalar abilene_cost_network.client[5] 	downloads[5] 	179667
scalar abilene_cost_network.client[5] 	avg_time[5] 	0.013269101936
scalar abilene_cost_network.client[5] 	interests_sent[5] 	179842
scalar abilene_cost_network.client[9] 	hdistance[9] 	2.4521712151935
scalar abilene_cost_network.client[9] 	downloads[9] 	180498
scalar abilene_cost_network.client[9] 	avg_time[9] 	0.009332020847
scalar abilene_cost_network.client[9] 	interests_sent[9] 	180659
