version 2
run General-29-20140627-19:36:12-15409
attr D lce
attr F spr
attr R lru
attr a 1
attr configname General
attr csize 1e3
attr ctlg 1e5
attr datetime 20140627-19:36:12
attr experiment General
attr inifile omnetpp.ini
attr iterationvars "$net=abilene_cost, $rep=18, $priceratiovalue=10, $weights=0.333_0.333_0.334, $lambda=100, $a=1, $ctlg=1e5, $F=spr, $ttl=1000, $D=lce, $xi=1, $R=lru, $csize=1e3, $pricebits=0, $window=60, $variance=0.05, $mytime=1800"
attr iterationvars2 "$net=abilene_cost, $rep=18, $priceratiovalue=10, $weights=0.333_0.333_0.334, $lambda=100, $a=1, $ctlg=1e5, $F=spr, $ttl=1000, $D=lce, $xi=1, $R=lru, $csize=1e3, $pricebits=0, $window=60, $variance=0.05, $mytime=1800, $repetition=0"
attr lambda 100
attr measurement "$net=abilene_cost, $rep=18, $priceratiovalue=10, $weights=0.333_0.333_0.334, $lambda=100, $a=1, $ctlg=1e5, $F=spr, $ttl=1000, $D=lce, $xi=1, $R=lru, $csize=1e3, $pricebits=0, $window=60, $variance=0.05, $mytime=1800"
attr mytime 1800
attr net abilene_cost
attr network "networks.${net=geant_cost, abilene_cost}_network"
attr pricebits 0
attr priceratiovalue 10
attr processid 15409
attr rep 18
attr repetition 0
attr replication #0
attr resultdir results
attr runnumber 29
attr seedset 18
attr ttl 1000
attr variance 0.05
attr weights 0.333_0.333_0.334
attr window 60
attr xi 1

scalar . 	a 	1
scalar . 	csize 	1e3
scalar . 	ctlg 	1e5
scalar . 	lambda 	100
scalar . 	mytime 	1800
scalar . 	pricebits 	0
scalar . 	priceratiovalue 	10
scalar . 	rep 	18
scalar . 	ttl 	1000
scalar . 	variance 	0.05
scalar . 	window 	60
scalar . 	xi 	1
scalar abilene_cost_network.content_distribution 	repo-0 	11
scalar abilene_cost_network.content_distribution 	repo-1 	12
scalar abilene_cost_network.content_distribution 	repo-2 	13
scalar abilene_cost_network.content_distribution 	client-0 	5
scalar abilene_cost_network.content_distribution 	client-1 	0
scalar abilene_cost_network.content_distribution 	client-2 	9
scalar abilene_cost_network.content_distribution 	repo-0_card 	33459
scalar abilene_cost_network.content_distribution 	repo-1_card 	33216
scalar abilene_cost_network.content_distribution 	repo-2_card 	33325
scalar abilene_cost_network.statistics 	repo_popularity[0] 	0.37544107217466
scalar abilene_cost_network.statistics 	repo_popularity[1] 	0.27083019094872
scalar abilene_cost_network.statistics 	repo_popularity[2] 	0.35372873687662
scalar abilene_cost_network.statistics 	stabilization_time 	64.4
scalar abilene_cost_network.node[1].face$o[4].channel 	price[1] 	0
scalar abilene_cost_network.node[1].face$o[4].channel 	represented_price[1] 	0
scalar abilene_cost_network.node[7].face$o[4].channel 	price[7] 	0
scalar abilene_cost_network.node[7].face$o[4].channel 	represented_price[7] 	0
scalar abilene_cost_network.node[10].face$o[4].channel 	price[10] 	0
scalar abilene_cost_network.node[10].face$o[4].channel 	represented_price[10] 	0
scalar abilene_cost_network.node[11].face$o[1].channel 	price[11] 	0
scalar abilene_cost_network.node[11].face$o[1].channel 	represented_price[11] 	0
scalar abilene_cost_network.node[12].face$o[1].channel 	price[12] 	1
scalar abilene_cost_network.node[12].face$o[1].channel 	represented_price[12] 	1
scalar abilene_cost_network.node[13].face$o[1].channel 	price[13] 	10
scalar abilene_cost_network.node[13].face$o[1].channel 	represented_price[13] 	10
scalar abilene_cost_network.statistics 	p_hit 	0.10654298935443
scalar abilene_cost_network.statistics 	interests 	129322.71428571
scalar abilene_cost_network.statistics 	data 	90751.142857143
scalar abilene_cost_network.statistics 	hdistance 	2.9983075922839
scalar abilene_cost_network.statistics 	avg_time 	0.011115612526
scalar abilene_cost_network.statistics 	downloads 	539454
scalar abilene_cost_network.statistics 	total_cost 	1290855
scalar abilene_cost_network.statistics 	total_replicas 	100000
scalar abilene_cost_network.statistics 	inner_hit 	0.35757636424978
scalar abilene_cost_network.statistics 	interests_sent 	539998
scalar abilene_cost_network.node[0].core_layer 	interests[0] 	179571
scalar abilene_cost_network.node[0].core_layer 	data[0] 	129284
scalar abilene_cost_network.node[0].core_layer 	repo_int[0] 	346558
scalar abilene_cost_network.node[0].content_store 	p_hit[0] 	0.2790818116511
scalar abilene_cost_network.node[0].content_store 	hits[0] 	50115
scalar abilene_cost_network.node[0].content_store 	misses[0] 	129456
scalar abilene_cost_network.node[0].content_store 	decision_yes[0] 	129284
scalar abilene_cost_network.node[0].content_store 	decision_no[0] 	0
scalar abilene_cost_network.node[0].content_store 	decision_ratio[0] 	1
scalar abilene_cost_network.node[1].core_layer 	interests[1] 	210959
scalar abilene_cost_network.node[1].core_layer 	data[1] 	202587
scalar abilene_cost_network.node[1].content_store 	p_hit[1] 	0.039680696249034
scalar abilene_cost_network.node[1].content_store 	hits[1] 	8371
scalar abilene_cost_network.node[1].content_store 	misses[1] 	202588
scalar abilene_cost_network.node[1].content_store 	decision_yes[1] 	202587
scalar abilene_cost_network.node[1].content_store 	decision_no[1] 	0
scalar abilene_cost_network.node[1].content_store 	decision_ratio[1] 	1
scalar abilene_cost_network.node[2].core_layer 	interests[2] 	125628
scalar abilene_cost_network.node[2].core_layer 	data[2] 	125298
scalar abilene_cost_network.node[2].content_store 	p_hit[2] 	0.0026188429331041
scalar abilene_cost_network.node[2].content_store 	hits[2] 	329
scalar abilene_cost_network.node[2].content_store 	misses[2] 	125299
scalar abilene_cost_network.node[2].content_store 	decision_yes[2] 	125298
scalar abilene_cost_network.node[2].content_store 	decision_no[2] 	0
scalar abilene_cost_network.node[2].content_store 	decision_ratio[2] 	1
scalar abilene_cost_network.node[3].core_layer 	interests[3] 	125298
scalar abilene_cost_network.node[3].core_layer 	data[3] 	125296
scalar abilene_cost_network.node[3].content_store 	p_hit[3] 	1.5961946719022e-05
scalar abilene_cost_network.node[3].content_store 	hits[3] 	2
scalar abilene_cost_network.node[3].content_store 	misses[3] 	125296
scalar abilene_cost_network.node[3].content_store 	decision_yes[3] 	125296
scalar abilene_cost_network.node[3].content_store 	decision_no[3] 	0
scalar abilene_cost_network.node[3].content_store 	decision_ratio[3] 	1
scalar abilene_cost_network.node[4].core_layer 	interests[4] 	86881
scalar abilene_cost_network.node[4].core_layer 	data[4] 	83372
scalar abilene_cost_network.node[4].content_store 	p_hit[4] 	0.040400087475973
scalar abilene_cost_network.node[4].content_store 	hits[4] 	3510
scalar abilene_cost_network.node[4].content_store 	misses[4] 	83371
scalar abilene_cost_network.node[4].content_store 	decision_yes[4] 	83372
scalar abilene_cost_network.node[4].content_store 	decision_no[4] 	0
scalar abilene_cost_network.node[4].content_store 	decision_ratio[4] 	1
scalar abilene_cost_network.node[5].core_layer 	interests[5] 	179860
scalar abilene_cost_network.node[5].core_layer 	data[5] 	129112
scalar abilene_cost_network.node[5].content_store 	p_hit[5] 	0.28088513288113
scalar abilene_cost_network.node[5].content_store 	hits[5] 	50520
scalar abilene_cost_network.node[5].content_store 	misses[5] 	129340
scalar abilene_cost_network.node[5].content_store 	decision_yes[5] 	129112
scalar abilene_cost_network.node[5].content_store 	decision_no[5] 	0
scalar abilene_cost_network.node[5].content_store 	decision_ratio[5] 	1
scalar abilene_cost_network.node[6].core_layer 	interests[6] 	42230
scalar abilene_cost_network.node[6].core_layer 	data[6] 	37314
scalar abilene_cost_network.node[6].content_store 	p_hit[6] 	0.11641013497514
scalar abilene_cost_network.node[6].content_store 	hits[6] 	4916
scalar abilene_cost_network.node[6].content_store 	misses[6] 	37314
scalar abilene_cost_network.node[6].content_store 	decision_yes[6] 	37314
scalar abilene_cost_network.node[6].content_store 	decision_no[6] 	0
scalar abilene_cost_network.node[6].content_store 	decision_ratio[6] 	1
scalar abilene_cost_network.node[7].core_layer 	interests[7] 	116849
scalar abilene_cost_network.node[7].core_layer 	data[7] 	109245
scalar abilene_cost_network.node[7].content_store 	p_hit[7] 	0.065075439242099
scalar abilene_cost_network.node[7].content_store 	hits[7] 	7604
scalar abilene_cost_network.node[7].content_store 	misses[7] 	109245
scalar abilene_cost_network.node[7].content_store 	decision_yes[7] 	109245
scalar abilene_cost_network.node[7].content_store 	decision_no[7] 	0
scalar abilene_cost_network.node[7].content_store 	decision_ratio[7] 	1
scalar abilene_cost_network.node[8].core_layer 	interests[8] 	42549
scalar abilene_cost_network.node[8].core_layer 	data[8] 	37612
scalar abilene_cost_network.node[8].content_store 	p_hit[8] 	0.11600742673153
scalar abilene_cost_network.node[8].content_store 	hits[8] 	4936
scalar abilene_cost_network.node[8].content_store 	misses[8] 	37613
scalar abilene_cost_network.node[8].content_store 	decision_yes[8] 	37612
scalar abilene_cost_network.node[8].content_store 	decision_no[8] 	0
scalar abilene_cost_network.node[8].content_store 	decision_ratio[8] 	1
scalar abilene_cost_network.node[9].core_layer 	interests[9] 	180567
scalar abilene_cost_network.node[9].core_layer 	data[9] 	129540
scalar abilene_cost_network.node[9].content_store 	p_hit[9] 	0.28179567695094
scalar abilene_cost_network.node[9].content_store 	hits[9] 	50883
scalar abilene_cost_network.node[9].content_store 	misses[9] 	129684
scalar abilene_cost_network.node[9].content_store 	decision_yes[9] 	129540
scalar abilene_cost_network.node[9].content_store 	decision_no[9] 	0
scalar abilene_cost_network.node[9].content_store 	decision_ratio[9] 	1
scalar abilene_cost_network.node[10].core_layer 	interests[10] 	173568
scalar abilene_cost_network.node[10].core_layer 	data[10] 	161856
scalar abilene_cost_network.node[10].content_store 	p_hit[10] 	0.067477876106195
scalar abilene_cost_network.node[10].content_store 	hits[10] 	11712
scalar abilene_cost_network.node[10].content_store 	misses[10] 	161856
scalar abilene_cost_network.node[10].content_store 	decision_yes[10] 	161856
scalar abilene_cost_network.node[10].content_store 	decision_no[10] 	0
scalar abilene_cost_network.node[10].content_store 	decision_ratio[10] 	1
scalar abilene_cost_network.node[11].core_layer 	interests[11] 	119152
scalar abilene_cost_network.node[11].core_layer 	repo_load[11] 	119152
scalar abilene_cost_network.node[11].core_layer 	data[11] 	0
scalar abilene_cost_network.node[11].content_store 	p_hit[11] 	0
scalar abilene_cost_network.node[11].content_store 	hits[11] 	0
scalar abilene_cost_network.node[11].content_store 	misses[11] 	119152
scalar abilene_cost_network.node[11].content_store 	decision_yes[11] 	0
scalar abilene_cost_network.node[11].content_store 	decision_no[11] 	119152
scalar abilene_cost_network.node[11].content_store 	decision_ratio[11] 	0
scalar abilene_cost_network.node[12].core_layer 	interests[12] 	109245
scalar abilene_cost_network.node[12].core_layer 	repo_load[12] 	109245
scalar abilene_cost_network.node[12].core_layer 	data[12] 	0
scalar abilene_cost_network.node[12].content_store 	p_hit[12] 	0
scalar abilene_cost_network.node[12].content_store 	hits[12] 	0
scalar abilene_cost_network.node[12].content_store 	misses[12] 	109245
scalar abilene_cost_network.node[12].content_store 	decision_yes[12] 	0
scalar abilene_cost_network.node[12].content_store 	decision_no[12] 	109245
scalar abilene_cost_network.node[12].content_store 	decision_ratio[12] 	0
scalar abilene_cost_network.node[13].core_layer 	interests[13] 	118161
scalar abilene_cost_network.node[13].core_layer 	repo_load[13] 	118161
scalar abilene_cost_network.node[13].core_layer 	data[13] 	0
scalar abilene_cost_network.node[13].content_store 	p_hit[13] 	0
scalar abilene_cost_network.node[13].content_store 	hits[13] 	0
scalar abilene_cost_network.node[13].content_store 	misses[13] 	118161
scalar abilene_cost_network.node[13].content_store 	decision_yes[13] 	0
scalar abilene_cost_network.node[13].content_store 	decision_no[13] 	118161
scalar abilene_cost_network.node[13].content_store 	decision_ratio[13] 	0
scalar abilene_cost_network.client[0] 	hdistance[0] 	2.7513865740612
scalar abilene_cost_network.client[0] 	downloads[0] 	179399
scalar abilene_cost_network.client[0] 	avg_time[0] 	0.010684713352
scalar abilene_cost_network.client[0] 	interests_sent[0] 	179571
scalar abilene_cost_network.client[5] 	hdistance[5] 	3.8021900329563
scalar abilene_cost_network.client[5] 	downloads[5] 	179632
scalar abilene_cost_network.client[5] 	avg_time[5] 	0.013624002928
scalar abilene_cost_network.client[5] 	interests_sent[5] 	179860
scalar abilene_cost_network.client[9] 	hdistance[9] 	2.4413461698342
scalar abilene_cost_network.client[9] 	downloads[9] 	180423
scalar abilene_cost_network.client[9] 	avg_time[9] 	0.0090381213
scalar abilene_cost_network.client[9] 	interests_sent[9] 	180567
