version 2
run General-0-20140725-16:07:10-29486
attr D costprobprodcorr0.01
attr F nrr
attr R lru
attr a 1
attr configname General
attr csize 10
attr ctlg 100
attr datetime 20140725-16:07:10
attr experiment General
attr inifile omnetpp.ini
attr iterationvars "$net=abilene_cost, $rep=14, $priceratiovalue=100, $weights=0.333_0.333_0.334, $lambda=100, $a=1, $ctlg=100, $F=nrr, $ttl=10, $D=costprobprodcorr0.01, $xi=1, $R=lru, $csize=10, $pricebits=0, $window=60, $variance=0.05, $mytime=1800"
attr iterationvars2 "$net=abilene_cost, $rep=14, $priceratiovalue=100, $weights=0.333_0.333_0.334, $lambda=100, $a=1, $ctlg=100, $F=nrr, $ttl=10, $D=costprobprodcorr0.01, $xi=1, $R=lru, $csize=10, $pricebits=0, $window=60, $variance=0.05, $mytime=1800, $repetition=0"
attr lambda 100
attr measurement "$net=abilene_cost, $rep=14, $priceratiovalue=100, $weights=0.333_0.333_0.334, $lambda=100, $a=1, $ctlg=100, $F=nrr, $ttl=10, $D=costprobprodcorr0.01, $xi=1, $R=lru, $csize=10, $pricebits=0, $window=60, $variance=0.05, $mytime=1800"
attr mytime 1800
attr net abilene_cost
attr network networks.${net=abilene_cost}_network
attr pricebits 0
attr priceratiovalue 100
attr processid 29486
attr rep 14
attr repetition 0
attr replication #0
attr resultdir results
attr runnumber 0
attr seedset 14
attr ttl 10
attr variance 0.05
attr weights 0.333_0.333_0.334
attr window 60
attr xi 1

scalar . 	a 	1
scalar . 	csize 	10
scalar . 	ctlg 	100
scalar . 	lambda 	100
scalar . 	mytime 	1800
scalar . 	pricebits 	0
scalar . 	priceratiovalue 	100
scalar . 	rep 	14
scalar . 	ttl 	10
scalar . 	variance 	0.05
scalar . 	window 	60
scalar . 	xi 	1
scalar abilene_cost_network.content_distribution 	repo-0 	11
scalar abilene_cost_network.content_distribution 	repo-1 	12
scalar abilene_cost_network.content_distribution 	repo-2 	13
scalar abilene_cost_network.content_distribution 	client-0 	5
scalar abilene_cost_network.content_distribution 	client-1 	0
scalar abilene_cost_network.content_distribution 	client-2 	9
scalar abilene_cost_network.content_distribution 	repo-0_card 	35
scalar abilene_cost_network.content_distribution 	repo-1_card 	32
scalar abilene_cost_network.content_distribution 	repo-2_card 	33
scalar abilene_cost_network.statistics 	popularity_indication[0] 	2.0459762268167
scalar abilene_cost_network.statistics 	repo_popularity[0] 	0.39441436831219
scalar abilene_cost_network.statistics 	popularity_indication[1] 	2.2758397033196
scalar abilene_cost_network.statistics 	repo_popularity[1] 	0.43872644618223
scalar abilene_cost_network.statistics 	popularity_indication[2] 	0.86556158750329
scalar abilene_cost_network.statistics 	repo_popularity[2] 	0.16685918550558
scalar abilene_cost_network.statistics 	stabilization_time 	1363.5
scalar abilene_cost_network.node[1].face$o[4].channel 	price[1] 	0
scalar abilene_cost_network.node[1].face$o[4].channel 	represented_price[1] 	0
scalar abilene_cost_network.node[7].face$o[4].channel 	price[7] 	0
scalar abilene_cost_network.node[7].face$o[4].channel 	represented_price[7] 	0
scalar abilene_cost_network.node[10].face$o[4].channel 	price[10] 	0
scalar abilene_cost_network.node[10].face$o[4].channel 	represented_price[10] 	0
scalar abilene_cost_network.node[11].face$o[1].channel 	price[11] 	0
scalar abilene_cost_network.node[11].face$o[1].channel 	represented_price[11] 	0
scalar abilene_cost_network.node[12].face$o[1].channel 	price[12] 	1
scalar abilene_cost_network.node[12].face$o[1].channel 	represented_price[12] 	1
scalar abilene_cost_network.node[13].face$o[1].channel 	price[13] 	100
scalar abilene_cost_network.node[13].face$o[1].channel 	represented_price[13] 	100
scalar abilene_cost_network.statistics 	p_hit 	0.043767928547369
scalar abilene_cost_network.statistics 	interests 	149925.5
scalar abilene_cost_network.statistics 	data 	111366.28571429
scalar abilene_cost_network.statistics 	hdistance 	3.9508247284626
scalar abilene_cost_network.statistics 	avg_time 	0.01510205432
scalar abilene_cost_network.statistics 	downloads 	495527
scalar abilene_cost_network.statistics 	total_cost 	9037587
scalar abilene_cost_network.statistics 	total_cost_other 	11510166
scalar abilene_cost_network.statistics 	total_replicas 	100
scalar abilene_cost_network.statistics 	inner_hit 	0.18557212825941
scalar abilene_cost_network.statistics 	interests_sent 	539828
scalar abilene_cost_network.node[0].core_layer 	interests[0] 	186324
scalar abilene_cost_network.node[0].core_layer 	data[0] 	157830
scalar abilene_cost_network.node[0].core_layer 	repo_int[0] 	403571
scalar abilene_cost_network.node[0].content_store 	p_hit[0] 	0.057287305983126
scalar abilene_cost_network.node[0].content_store 	hits[0] 	10674
scalar abilene_cost_network.node[0].content_store 	misses[0] 	175650
scalar abilene_cost_network.node[0].content_store 	decision_yes[0] 	1335
scalar abilene_cost_network.node[0].content_store 	decision_no[0] 	156493
scalar abilene_cost_network.node[0].content_store 	decision_ratio[0] 	0.0084585751577667
scalar abilene_cost_network.node[0].content_store 	correction_factor[0] 	0.00029644561705155
scalar abilene_cost_network.node[0].content_store 	xi[0] 	1
scalar abilene_cost_network.node[1].core_layer 	interests[1] 	204377
scalar abilene_cost_network.node[1].core_layer 	data[1] 	195937
scalar abilene_cost_network.node[1].content_store 	p_hit[1] 	0.041296231963479
scalar abilene_cost_network.node[1].content_store 	hits[1] 	8440
scalar abilene_cost_network.node[1].content_store 	misses[1] 	195937
scalar abilene_cost_network.node[1].content_store 	decision_yes[1] 	969
scalar abilene_cost_network.node[1].content_store 	decision_no[1] 	194948
scalar abilene_cost_network.node[1].content_store 	decision_ratio[1] 	0.004945972018763
scalar abilene_cost_network.node[1].content_store 	correction_factor[1] 	0.00029644561705155
scalar abilene_cost_network.node[1].content_store 	xi[1] 	1
scalar abilene_cost_network.node[2].core_layer 	interests[2] 	148178
scalar abilene_cost_network.node[2].core_layer 	data[2] 	139533
scalar abilene_cost_network.node[2].content_store 	p_hit[2] 	0.057775108315674
scalar abilene_cost_network.node[2].content_store 	hits[2] 	8561
scalar abilene_cost_network.node[2].content_store 	misses[2] 	139617
scalar abilene_cost_network.node[2].content_store 	decision_yes[2] 	951
scalar abilene_cost_network.node[2].content_store 	decision_no[2] 	138560
scalar abilene_cost_network.node[2].content_store 	decision_ratio[2] 	0.0068166667861316
scalar abilene_cost_network.node[2].content_store 	correction_factor[2] 	0.00029644561705155
scalar abilene_cost_network.node[2].content_store 	xi[2] 	1
scalar abilene_cost_network.node[3].core_layer 	interests[3] 	142685
scalar abilene_cost_network.node[3].core_layer 	data[3] 	133686
scalar abilene_cost_network.node[3].content_store 	p_hit[3] 	0.063068998142762
scalar abilene_cost_network.node[3].content_store 	hits[3] 	8999
scalar abilene_cost_network.node[3].content_store 	misses[3] 	133686
scalar abilene_cost_network.node[3].content_store 	decision_yes[3] 	899
scalar abilene_cost_network.node[3].content_store 	decision_no[3] 	132787
scalar abilene_cost_network.node[3].content_store 	decision_ratio[3] 	0.0067247131337612
scalar abilene_cost_network.node[3].content_store 	correction_factor[3] 	0.00029644561705155
scalar abilene_cost_network.node[3].content_store 	xi[3] 	1
scalar abilene_cost_network.node[4].core_layer 	interests[4] 	76873
scalar abilene_cost_network.node[4].core_layer 	data[4] 	73573
scalar abilene_cost_network.node[4].content_store 	p_hit[4] 	0.042940954561419
scalar abilene_cost_network.node[4].content_store 	hits[4] 	3301
scalar abilene_cost_network.node[4].content_store 	misses[4] 	73572
scalar abilene_cost_network.node[4].content_store 	decision_yes[4] 	938
scalar abilene_cost_network.node[4].content_store 	decision_no[4] 	72635
scalar abilene_cost_network.node[4].content_store 	decision_ratio[4] 	0.012749242249195
scalar abilene_cost_network.node[4].content_store 	correction_factor[4] 	0.00029644561705155
scalar abilene_cost_network.node[4].content_store 	xi[4] 	1
scalar abilene_cost_network.node[5].core_layer 	interests[5] 	180635
scalar abilene_cost_network.node[5].core_layer 	data[5] 	167078
scalar abilene_cost_network.node[5].content_store 	p_hit[5] 	0.017853682841088
scalar abilene_cost_network.node[5].content_store 	hits[5] 	3225
scalar abilene_cost_network.node[5].content_store 	misses[5] 	177410
scalar abilene_cost_network.node[5].content_store 	decision_yes[5] 	960
scalar abilene_cost_network.node[5].content_store 	decision_no[5] 	166118
scalar abilene_cost_network.node[5].content_store 	decision_ratio[5] 	0.0057458193179234
scalar abilene_cost_network.node[5].content_store 	correction_factor[5] 	0.00029644561705155
scalar abilene_cost_network.node[5].content_store 	xi[5] 	1
scalar abilene_cost_network.node[6].core_layer 	interests[6] 	90925
scalar abilene_cost_network.node[6].core_layer 	data[6] 	89553
scalar abilene_cost_network.node[6].content_store 	p_hit[6] 	0.015078361286775
scalar abilene_cost_network.node[6].content_store 	hits[6] 	1371
scalar abilene_cost_network.node[6].content_store 	misses[6] 	89554
scalar abilene_cost_network.node[6].content_store 	decision_yes[6] 	0
scalar abilene_cost_network.node[6].content_store 	decision_no[6] 	89553
scalar abilene_cost_network.node[6].content_store 	decision_ratio[6] 	0
scalar abilene_cost_network.node[6].content_store 	correction_factor[6] 	0.00029644561705155
scalar abilene_cost_network.node[6].content_store 	xi[6] 	1
scalar abilene_cost_network.node[7].core_layer 	interests[7] 	225988
scalar abilene_cost_network.node[7].core_layer 	data[7] 	207412
scalar abilene_cost_network.node[7].content_store 	p_hit[7] 	0.08219905481707
scalar abilene_cost_network.node[7].content_store 	hits[7] 	18576
scalar abilene_cost_network.node[7].content_store 	misses[7] 	207412
scalar abilene_cost_network.node[7].content_store 	decision_yes[7] 	3
scalar abilene_cost_network.node[7].content_store 	decision_no[7] 	207409
scalar abilene_cost_network.node[7].content_store 	decision_ratio[7] 	1.4463965440765e-05
scalar abilene_cost_network.node[7].content_store 	correction_factor[7] 	0.00029644561705155
scalar abilene_cost_network.node[7].content_store 	xi[7] 	1
scalar abilene_cost_network.node[8].core_layer 	interests[8] 	90275
scalar abilene_cost_network.node[8].core_layer 	data[8] 	82046
scalar abilene_cost_network.node[8].content_store 	p_hit[8] 	0.091154804763223
scalar abilene_cost_network.node[8].content_store 	hits[8] 	8229
scalar abilene_cost_network.node[8].content_store 	misses[8] 	82046
scalar abilene_cost_network.node[8].content_store 	decision_yes[8] 	2
scalar abilene_cost_network.node[8].content_store 	decision_no[8] 	82044
scalar abilene_cost_network.node[8].content_store 	decision_ratio[8] 	2.4376569241645e-05
scalar abilene_cost_network.node[8].content_store 	correction_factor[8] 	0.00029644561705155
scalar abilene_cost_network.node[8].content_store 	xi[8] 	1
scalar abilene_cost_network.node[9].core_layer 	interests[9] 	185180
scalar abilene_cost_network.node[9].core_layer 	data[9] 	158890
scalar abilene_cost_network.node[9].content_store 	p_hit[9] 	0.054752133059726
scalar abilene_cost_network.node[9].content_store 	hits[9] 	10139
scalar abilene_cost_network.node[9].content_store 	misses[9] 	175041
scalar abilene_cost_network.node[9].content_store 	decision_yes[9] 	1153
scalar abilene_cost_network.node[9].content_store 	decision_no[9] 	157737
scalar abilene_cost_network.node[9].content_store 	decision_ratio[9] 	0.0072565926112405
scalar abilene_cost_network.node[9].content_store 	correction_factor[9] 	0.00029644561705155
scalar abilene_cost_network.node[9].content_store 	xi[9] 	1
scalar abilene_cost_network.node[10].core_layer 	interests[10] 	163946
scalar abilene_cost_network.node[10].core_layer 	data[10] 	153590
scalar abilene_cost_network.node[10].content_store 	p_hit[10] 	0.063142742122406
scalar abilene_cost_network.node[10].content_store 	hits[10] 	10352
scalar abilene_cost_network.node[10].content_store 	misses[10] 	153594
scalar abilene_cost_network.node[10].content_store 	decision_yes[10] 	3230
scalar abilene_cost_network.node[10].content_store 	decision_no[10] 	150322
scalar abilene_cost_network.node[10].content_store 	decision_ratio[10] 	0.021035219339377
scalar abilene_cost_network.node[10].content_store 	correction_factor[10] 	0.00029644561705155
scalar abilene_cost_network.node[10].content_store 	xi[10] 	1
scalar abilene_cost_network.node[11].core_layer 	interests[11] 	114218
scalar abilene_cost_network.node[11].core_layer 	repo_load[11] 	114218
scalar abilene_cost_network.node[11].core_layer 	data[11] 	0
scalar abilene_cost_network.node[11].content_store 	p_hit[11] 	0
scalar abilene_cost_network.node[11].content_store 	hits[11] 	0
scalar abilene_cost_network.node[11].content_store 	misses[11] 	114218
scalar abilene_cost_network.node[11].content_store 	decision_yes[11] 	0
scalar abilene_cost_network.node[11].content_store 	decision_no[11] 	114218
scalar abilene_cost_network.node[11].content_store 	decision_ratio[11] 	0
scalar abilene_cost_network.node[12].core_layer 	interests[12] 	200987
scalar abilene_cost_network.node[12].core_layer 	repo_load[12] 	200987
scalar abilene_cost_network.node[12].core_layer 	data[12] 	0
scalar abilene_cost_network.node[12].content_store 	p_hit[12] 	0
scalar abilene_cost_network.node[12].content_store 	hits[12] 	0
scalar abilene_cost_network.node[12].content_store 	misses[12] 	200987
scalar abilene_cost_network.node[12].content_store 	decision_yes[12] 	0
scalar abilene_cost_network.node[12].content_store 	decision_no[12] 	200987
scalar abilene_cost_network.node[12].content_store 	decision_ratio[12] 	0
scalar abilene_cost_network.node[13].core_layer 	interests[13] 	88366
scalar abilene_cost_network.node[13].core_layer 	repo_load[13] 	88366
scalar abilene_cost_network.node[13].core_layer 	data[13] 	0
scalar abilene_cost_network.node[13].content_store 	p_hit[13] 	0
scalar abilene_cost_network.node[13].content_store 	hits[13] 	0
scalar abilene_cost_network.node[13].content_store 	misses[13] 	88366
scalar abilene_cost_network.node[13].content_store 	decision_yes[13] 	0
scalar abilene_cost_network.node[13].content_store 	decision_no[13] 	88366
scalar abilene_cost_network.node[13].content_store 	decision_ratio[13] 	0
scalar abilene_cost_network.client[0] 	hdistance[0] 	3.9487899435368
scalar abilene_cost_network.client[0] 	downloads[0] 	162761
scalar abilene_cost_network.client[0] 	avg_time[0] 	0.015765927333
scalar abilene_cost_network.client[0] 	interests_sent[0] 	180580
scalar abilene_cost_network.client[5] 	hdistance[5] 	4.5813444055533
scalar abilene_cost_network.client[5] 	downloads[5] 	170276
scalar abilene_cost_network.client[5] 	avg_time[5] 	0.014965040885
scalar abilene_cost_network.client[5] 	interests_sent[5] 	180608
scalar abilene_cost_network.client[9] 	hdistance[9] 	3.3223398362976
scalar abilene_cost_network.client[9] 	downloads[9] 	162490
scalar abilene_cost_network.client[9] 	avg_time[9] 	0.014575194742
scalar abilene_cost_network.client[9] 	interests_sent[9] 	178640
