version 2
run General-5-20140725-16:14:20-29486
attr D costprobprodcorr0.01
attr F nrr
attr R lru
attr a 1
attr configname General
attr csize 10
attr ctlg 100
attr datetime 20140725-16:14:20
attr experiment General
attr inifile omnetpp.ini
attr iterationvars "$net=abilene_cost, $rep=19, $priceratiovalue=100, $weights=0.333_0.333_0.334, $lambda=100, $a=1, $ctlg=100, $F=nrr, $ttl=10, $D=costprobprodcorr0.01, $xi=1, $R=lru, $csize=10, $pricebits=0, $window=60, $variance=0.05, $mytime=1800"
attr iterationvars2 "$net=abilene_cost, $rep=19, $priceratiovalue=100, $weights=0.333_0.333_0.334, $lambda=100, $a=1, $ctlg=100, $F=nrr, $ttl=10, $D=costprobprodcorr0.01, $xi=1, $R=lru, $csize=10, $pricebits=0, $window=60, $variance=0.05, $mytime=1800, $repetition=0"
attr lambda 100
attr measurement "$net=abilene_cost, $rep=19, $priceratiovalue=100, $weights=0.333_0.333_0.334, $lambda=100, $a=1, $ctlg=100, $F=nrr, $ttl=10, $D=costprobprodcorr0.01, $xi=1, $R=lru, $csize=10, $pricebits=0, $window=60, $variance=0.05, $mytime=1800"
attr mytime 1800
attr net abilene_cost
attr network networks.${net=abilene_cost}_network
attr pricebits 0
attr priceratiovalue 100
attr processid 29486
attr rep 19
attr repetition 0
attr replication #0
attr resultdir results
attr runnumber 5
attr seedset 19
attr ttl 10
attr variance 0.05
attr weights 0.333_0.333_0.334
attr window 60
attr xi 1

scalar . 	a 	1
scalar . 	csize 	10
scalar . 	ctlg 	100
scalar . 	lambda 	100
scalar . 	mytime 	1800
scalar . 	pricebits 	0
scalar . 	priceratiovalue 	100
scalar . 	rep 	19
scalar . 	ttl 	10
scalar . 	variance 	0.05
scalar . 	window 	60
scalar . 	xi 	1
scalar abilene_cost_network.content_distribution 	repo-0 	11
scalar abilene_cost_network.content_distribution 	repo-1 	12
scalar abilene_cost_network.content_distribution 	repo-2 	13
scalar abilene_cost_network.content_distribution 	client-0 	5
scalar abilene_cost_network.content_distribution 	client-1 	0
scalar abilene_cost_network.content_distribution 	client-2 	9
scalar abilene_cost_network.content_distribution 	repo-0_card 	29
scalar abilene_cost_network.content_distribution 	repo-1_card 	40
scalar abilene_cost_network.content_distribution 	repo-2_card 	31
scalar abilene_cost_network.statistics 	popularity_indication[0] 	1.0111718130058
scalar abilene_cost_network.statistics 	repo_popularity[0] 	0.19492928933113
scalar abilene_cost_network.statistics 	popularity_indication[1] 	1.7728533717479
scalar abilene_cost_network.statistics 	repo_popularity[1] 	0.34176293622728
scalar abilene_cost_network.statistics 	popularity_indication[2] 	2.4033523328859
scalar abilene_cost_network.statistics 	repo_popularity[2] 	0.46330777444159
scalar abilene_cost_network.statistics 	stabilization_time 	337.7
scalar abilene_cost_network.node[1].face$o[4].channel 	price[1] 	0
scalar abilene_cost_network.node[1].face$o[4].channel 	represented_price[1] 	0
scalar abilene_cost_network.node[7].face$o[4].channel 	price[7] 	0
scalar abilene_cost_network.node[7].face$o[4].channel 	represented_price[7] 	0
scalar abilene_cost_network.node[10].face$o[4].channel 	price[10] 	0
scalar abilene_cost_network.node[10].face$o[4].channel 	represented_price[10] 	0
scalar abilene_cost_network.node[11].face$o[1].channel 	price[11] 	0
scalar abilene_cost_network.node[11].face$o[1].channel 	represented_price[11] 	0
scalar abilene_cost_network.node[12].face$o[1].channel 	price[12] 	1
scalar abilene_cost_network.node[12].face$o[1].channel 	represented_price[12] 	1
scalar abilene_cost_network.node[13].face$o[1].channel 	price[13] 	100
scalar abilene_cost_network.node[13].face$o[1].channel 	represented_price[13] 	100
scalar abilene_cost_network.statistics 	p_hit 	0.04414078483216
scalar abilene_cost_network.statistics 	interests 	151177
scalar abilene_cost_network.statistics 	data 	112652.92857143
scalar abilene_cost_network.statistics 	hdistance 	3.9842568476514
scalar abilene_cost_network.statistics 	avg_time 	0.014880673299
scalar abilene_cost_network.statistics 	downloads 	498257
scalar abilene_cost_network.statistics 	total_cost 	22273652
scalar abilene_cost_network.statistics 	total_cost_other 	8929369
scalar abilene_cost_network.statistics 	total_replicas 	100
scalar abilene_cost_network.statistics 	inner_hit 	0.18842284202731
scalar abilene_cost_network.statistics 	interests_sent 	539330
scalar abilene_cost_network.node[0].core_layer 	interests[0] 	182351
scalar abilene_cost_network.node[0].core_layer 	data[0] 	164037
scalar abilene_cost_network.node[0].core_layer 	repo_int[0] 	404374
scalar abilene_cost_network.node[0].content_store 	p_hit[0] 	0.032596476027003
scalar abilene_cost_network.node[0].content_store 	hits[0] 	5944
scalar abilene_cost_network.node[0].content_store 	misses[0] 	176407
scalar abilene_cost_network.node[0].content_store 	decision_yes[0] 	852
scalar abilene_cost_network.node[0].content_store 	decision_no[0] 	163185
scalar abilene_cost_network.node[0].content_store 	decision_ratio[0] 	0.005193950145394
scalar abilene_cost_network.node[0].content_store 	correction_factor[0] 	0.00029644561705155
scalar abilene_cost_network.node[0].content_store 	xi[0] 	1
scalar abilene_cost_network.node[1].core_layer 	interests[1] 	309340
scalar abilene_cost_network.node[1].core_layer 	data[1] 	300530
scalar abilene_cost_network.node[1].content_store 	p_hit[1] 	0.028473524277494
scalar abilene_cost_network.node[1].content_store 	hits[1] 	8808
scalar abilene_cost_network.node[1].content_store 	misses[1] 	300532
scalar abilene_cost_network.node[1].content_store 	decision_yes[1] 	814
scalar abilene_cost_network.node[1].content_store 	decision_no[1] 	299716
scalar abilene_cost_network.node[1].content_store 	decision_ratio[1] 	0.0027085482314578
scalar abilene_cost_network.node[1].content_store 	correction_factor[1] 	0.00029644561705155
scalar abilene_cost_network.node[1].content_store 	xi[1] 	1
scalar abilene_cost_network.node[2].core_layer 	interests[2] 	163298
scalar abilene_cost_network.node[2].core_layer 	data[2] 	153587
scalar abilene_cost_network.node[2].content_store 	p_hit[2] 	0.057753309899693
scalar abilene_cost_network.node[2].content_store 	hits[2] 	9431
scalar abilene_cost_network.node[2].content_store 	misses[2] 	153867
scalar abilene_cost_network.node[2].content_store 	decision_yes[2] 	832
scalar abilene_cost_network.node[2].content_store 	decision_no[2] 	152742
scalar abilene_cost_network.node[2].content_store 	decision_ratio[2] 	0.0054175837055752
scalar abilene_cost_network.node[2].content_store 	correction_factor[2] 	0.00029644561705155
scalar abilene_cost_network.node[2].content_store 	xi[2] 	1
scalar abilene_cost_network.node[3].core_layer 	interests[3] 	157439
scalar abilene_cost_network.node[3].core_layer 	data[3] 	147775
scalar abilene_cost_network.node[3].content_store 	p_hit[3] 	0.061388855366205
scalar abilene_cost_network.node[3].content_store 	hits[3] 	9665
scalar abilene_cost_network.node[3].content_store 	misses[3] 	147774
scalar abilene_cost_network.node[3].content_store 	decision_yes[3] 	838
scalar abilene_cost_network.node[3].content_store 	decision_no[3] 	146917
scalar abilene_cost_network.node[3].content_store 	decision_ratio[3] 	0.0056715508781429
scalar abilene_cost_network.node[3].content_store 	correction_factor[3] 	0.00029644561705155
scalar abilene_cost_network.node[3].content_store 	xi[3] 	1
scalar abilene_cost_network.node[4].core_layer 	interests[4] 	120546
scalar abilene_cost_network.node[4].core_layer 	data[4] 	114659
scalar abilene_cost_network.node[4].content_store 	p_hit[4] 	0.048844424535032
scalar abilene_cost_network.node[4].content_store 	hits[4] 	5888
scalar abilene_cost_network.node[4].content_store 	misses[4] 	114658
scalar abilene_cost_network.node[4].content_store 	decision_yes[4] 	15
scalar abilene_cost_network.node[4].content_store 	decision_no[4] 	114644
scalar abilene_cost_network.node[4].content_store 	decision_ratio[4] 	0.00013082270035497
scalar abilene_cost_network.node[4].content_store 	correction_factor[4] 	0.00029644561705155
scalar abilene_cost_network.node[4].content_store 	xi[4] 	1
scalar abilene_cost_network.node[5].core_layer 	interests[5] 	185279
scalar abilene_cost_network.node[5].core_layer 	data[5] 	160139
scalar abilene_cost_network.node[5].content_store 	p_hit[5] 	0.05133879176809
scalar abilene_cost_network.node[5].content_store 	hits[5] 	9512
scalar abilene_cost_network.node[5].content_store 	misses[5] 	175767
scalar abilene_cost_network.node[5].content_store 	decision_yes[5] 	909
scalar abilene_cost_network.node[5].content_store 	decision_no[5] 	159228
scalar abilene_cost_network.node[5].content_store 	decision_ratio[5] 	0.0056763895914124
scalar abilene_cost_network.node[5].content_store 	correction_factor[5] 	0.00029644561705155
scalar abilene_cost_network.node[5].content_store 	xi[5] 	1
scalar abilene_cost_network.node[6].core_layer 	interests[6] 	53442
scalar abilene_cost_network.node[6].core_layer 	data[6] 	43318
scalar abilene_cost_network.node[6].content_store 	p_hit[6] 	0.1893641705026
scalar abilene_cost_network.node[6].content_store 	hits[6] 	10120
scalar abilene_cost_network.node[6].content_store 	misses[6] 	43322
scalar abilene_cost_network.node[6].content_store 	decision_yes[6] 	869
scalar abilene_cost_network.node[6].content_store 	decision_no[6] 	42423
scalar abilene_cost_network.node[6].content_store 	decision_ratio[6] 	0.02007299270073
scalar abilene_cost_network.node[6].content_store 	correction_factor[6] 	0.00029644561705155
scalar abilene_cost_network.node[6].content_store 	xi[6] 	1
scalar abilene_cost_network.node[7].core_layer 	interests[7] 	112677
scalar abilene_cost_network.node[7].core_layer 	data[7] 	103287
scalar abilene_cost_network.node[7].content_store 	p_hit[7] 	0.081835689626099
scalar abilene_cost_network.node[7].content_store 	hits[7] 	9221
scalar abilene_cost_network.node[7].content_store 	misses[7] 	103456
scalar abilene_cost_network.node[7].content_store 	decision_yes[7] 	2635
scalar abilene_cost_network.node[7].content_store 	decision_no[7] 	100567
scalar abilene_cost_network.node[7].content_store 	decision_ratio[7] 	0.025532450921494
scalar abilene_cost_network.node[7].content_store 	correction_factor[7] 	0.00029644561705155
scalar abilene_cost_network.node[7].content_store 	xi[7] 	1
scalar abilene_cost_network.node[8].core_layer 	interests[8] 	56436
scalar abilene_cost_network.node[8].core_layer 	data[8] 	47951
scalar abilene_cost_network.node[8].content_store 	p_hit[8] 	0.15027641930683
scalar abilene_cost_network.node[8].content_store 	hits[8] 	8481
scalar abilene_cost_network.node[8].content_store 	misses[8] 	47955
scalar abilene_cost_network.node[8].content_store 	decision_yes[8] 	849
scalar abilene_cost_network.node[8].content_store 	decision_no[8] 	47087
scalar abilene_cost_network.node[8].content_store 	decision_ratio[8] 	0.01771111481976
scalar abilene_cost_network.node[8].content_store 	correction_factor[8] 	0.00029644561705155
scalar abilene_cost_network.node[8].content_store 	xi[8] 	1
scalar abilene_cost_network.node[9].core_layer 	interests[9] 	186494
scalar abilene_cost_network.node[9].core_layer 	data[9] 	163629
scalar abilene_cost_network.node[9].content_store 	p_hit[9] 	0.05244672750866
scalar abilene_cost_network.node[9].content_store 	hits[9] 	9781
scalar abilene_cost_network.node[9].content_store 	misses[9] 	176713
scalar abilene_cost_network.node[9].content_store 	decision_yes[9] 	793
scalar abilene_cost_network.node[9].content_store 	decision_no[9] 	162836
scalar abilene_cost_network.node[9].content_store 	decision_ratio[9] 	0.0048463291959249
scalar abilene_cost_network.node[9].content_store 	correction_factor[9] 	0.00029644561705155
scalar abilene_cost_network.node[9].content_store 	xi[9] 	1
scalar abilene_cost_network.node[10].core_layer 	interests[10] 	184802
scalar abilene_cost_network.node[10].core_layer 	data[10] 	178229
scalar abilene_cost_network.node[10].content_store 	p_hit[10] 	0.035562385688467
scalar abilene_cost_network.node[10].content_store 	hits[10] 	6572
scalar abilene_cost_network.node[10].content_store 	misses[10] 	178230
scalar abilene_cost_network.node[10].content_store 	decision_yes[10] 	35
scalar abilene_cost_network.node[10].content_store 	decision_no[10] 	178194
scalar abilene_cost_network.node[10].content_store 	decision_ratio[10] 	0.00019637657171392
scalar abilene_cost_network.node[10].content_store 	correction_factor[10] 	0.00029644561705155
scalar abilene_cost_network.node[10].content_store 	xi[10] 	1
scalar abilene_cost_network.node[11].core_layer 	interests[11] 	94169
scalar abilene_cost_network.node[11].core_layer 	repo_load[11] 	94169
scalar abilene_cost_network.node[11].core_layer 	data[11] 	0
scalar abilene_cost_network.node[11].content_store 	p_hit[11] 	0
scalar abilene_cost_network.node[11].content_store 	hits[11] 	0
scalar abilene_cost_network.node[11].content_store 	misses[11] 	94169
scalar abilene_cost_network.node[11].content_store 	decision_yes[11] 	0
scalar abilene_cost_network.node[11].content_store 	decision_no[11] 	94169
scalar abilene_cost_network.node[11].content_store 	decision_ratio[11] 	0
scalar abilene_cost_network.node[12].core_layer 	interests[12] 	88352
scalar abilene_cost_network.node[12].core_layer 	repo_load[12] 	88352
scalar abilene_cost_network.node[12].core_layer 	data[12] 	0
scalar abilene_cost_network.node[12].content_store 	p_hit[12] 	0
scalar abilene_cost_network.node[12].content_store 	hits[12] 	0
scalar abilene_cost_network.node[12].content_store 	misses[12] 	88352
scalar abilene_cost_network.node[12].content_store 	decision_yes[12] 	0
scalar abilene_cost_network.node[12].content_store 	decision_no[12] 	88352
scalar abilene_cost_network.node[12].content_store 	decision_ratio[12] 	0
scalar abilene_cost_network.node[13].core_layer 	interests[13] 	221853
scalar abilene_cost_network.node[13].core_layer 	repo_load[13] 	221853
scalar abilene_cost_network.node[13].core_layer 	data[13] 	0
scalar abilene_cost_network.node[13].content_store 	p_hit[13] 	0
scalar abilene_cost_network.node[13].content_store 	hits[13] 	0
scalar abilene_cost_network.node[13].content_store 	misses[13] 	221853
scalar abilene_cost_network.node[13].content_store 	decision_yes[13] 	0
scalar abilene_cost_network.node[13].content_store 	decision_no[13] 	221853
scalar abilene_cost_network.node[13].content_store 	decision_ratio[13] 	0
scalar abilene_cost_network.client[0] 	hdistance[0] 	3.450600593415
scalar abilene_cost_network.client[0] 	downloads[0] 	167168
scalar abilene_cost_network.client[0] 	avg_time[0] 	0.013879904642
scalar abilene_cost_network.client[0] 	interests_sent[0] 	179536
scalar abilene_cost_network.client[5] 	hdistance[5] 	5.0556907222781
scalar abilene_cost_network.client[5] 	downloads[5] 	163995
scalar abilene_cost_network.client[5] 	avg_time[5] 	0.017420423266
scalar abilene_cost_network.client[5] 	interests_sent[5] 	179619
scalar abilene_cost_network.client[9] 	hdistance[9] 	3.4464792272613
scalar abilene_cost_network.client[9] 	downloads[9] 	167094
scalar abilene_cost_network.client[9] 	avg_time[9] 	0.01334169199
scalar abilene_cost_network.client[9] 	interests_sent[9] 	180175
