version 2
run General-1-20140725-16:08:48-29486
attr D costprobprodcorr0.01
attr F nrr
attr R lru
attr a 1
attr configname General
attr csize 10
attr ctlg 100
attr datetime 20140725-16:08:48
attr experiment General
attr inifile omnetpp.ini
attr iterationvars "$net=abilene_cost, $rep=15, $priceratiovalue=100, $weights=0.333_0.333_0.334, $lambda=100, $a=1, $ctlg=100, $F=nrr, $ttl=10, $D=costprobprodcorr0.01, $xi=1, $R=lru, $csize=10, $pricebits=0, $window=60, $variance=0.05, $mytime=1800"
attr iterationvars2 "$net=abilene_cost, $rep=15, $priceratiovalue=100, $weights=0.333_0.333_0.334, $lambda=100, $a=1, $ctlg=100, $F=nrr, $ttl=10, $D=costprobprodcorr0.01, $xi=1, $R=lru, $csize=10, $pricebits=0, $window=60, $variance=0.05, $mytime=1800, $repetition=0"
attr lambda 100
attr measurement "$net=abilene_cost, $rep=15, $priceratiovalue=100, $weights=0.333_0.333_0.334, $lambda=100, $a=1, $ctlg=100, $F=nrr, $ttl=10, $D=costprobprodcorr0.01, $xi=1, $R=lru, $csize=10, $pricebits=0, $window=60, $variance=0.05, $mytime=1800"
attr mytime 1800
attr net abilene_cost
attr network networks.${net=abilene_cost}_network
attr pricebits 0
attr priceratiovalue 100
attr processid 29486
attr rep 15
attr repetition 0
attr replication #0
attr resultdir results
attr runnumber 1
attr seedset 15
attr ttl 10
attr variance 0.05
attr weights 0.333_0.333_0.334
attr window 60
attr xi 1

scalar . 	a 	1
scalar . 	csize 	10
scalar . 	ctlg 	100
scalar . 	lambda 	100
scalar . 	mytime 	1800
scalar . 	pricebits 	0
scalar . 	priceratiovalue 	100
scalar . 	rep 	15
scalar . 	ttl 	10
scalar . 	variance 	0.05
scalar . 	window 	60
scalar . 	xi 	1
scalar abilene_cost_network.content_distribution 	repo-0 	11
scalar abilene_cost_network.content_distribution 	repo-1 	12
scalar abilene_cost_network.content_distribution 	repo-2 	13
scalar abilene_cost_network.content_distribution 	client-0 	5
scalar abilene_cost_network.content_distribution 	client-1 	0
scalar abilene_cost_network.content_distribution 	client-2 	9
scalar abilene_cost_network.content_distribution 	repo-0_card 	42
scalar abilene_cost_network.content_distribution 	repo-1_card 	28
scalar abilene_cost_network.content_distribution 	repo-2_card 	30
scalar abilene_cost_network.statistics 	popularity_indication[0] 	2.494431407359
scalar abilene_cost_network.statistics 	repo_popularity[0] 	0.48086560094706
scalar abilene_cost_network.statistics 	popularity_indication[1] 	1.1725301685805
scalar abilene_cost_network.statistics 	repo_popularity[1] 	0.22603524894676
scalar abilene_cost_network.statistics 	popularity_indication[2] 	1.5204159417001
scalar abilene_cost_network.statistics 	repo_popularity[2] 	0.29309915010619
scalar abilene_cost_network.statistics 	stabilization_time 	306
scalar abilene_cost_network.node[1].face$o[4].channel 	price[1] 	0
scalar abilene_cost_network.node[1].face$o[4].channel 	represented_price[1] 	0
scalar abilene_cost_network.node[7].face$o[4].channel 	price[7] 	0
scalar abilene_cost_network.node[7].face$o[4].channel 	represented_price[7] 	0
scalar abilene_cost_network.node[10].face$o[4].channel 	price[10] 	0
scalar abilene_cost_network.node[10].face$o[4].channel 	represented_price[10] 	0
scalar abilene_cost_network.node[11].face$o[1].channel 	price[11] 	0
scalar abilene_cost_network.node[11].face$o[1].channel 	represented_price[11] 	0
scalar abilene_cost_network.node[12].face$o[1].channel 	price[12] 	1
scalar abilene_cost_network.node[12].face$o[1].channel 	represented_price[12] 	1
scalar abilene_cost_network.node[13].face$o[1].channel 	price[13] 	100
scalar abilene_cost_network.node[13].face$o[1].channel 	represented_price[13] 	100
scalar abilene_cost_network.statistics 	p_hit 	0.068327328326512
scalar abilene_cost_network.statistics 	interests 	145335.07142857
scalar abilene_cost_network.statistics 	data 	106770.5
scalar abilene_cost_network.statistics 	hdistance 	3.7077745527998
scalar abilene_cost_network.statistics 	avg_time 	0.014309239214
scalar abilene_cost_network.statistics 	downloads 	503018
scalar abilene_cost_network.statistics 	total_cost 	15273154
scalar abilene_cost_network.statistics 	total_cost_other 	12795454
scalar abilene_cost_network.statistics 	total_replicas 	100
scalar abilene_cost_network.statistics 	inner_hit 	0.27706960784704
scalar abilene_cost_network.statistics 	interests_sent 	539887
scalar abilene_cost_network.node[0].core_layer 	interests[0] 	192356
scalar abilene_cost_network.node[0].core_layer 	data[0] 	160258
scalar abilene_cost_network.node[0].core_layer 	repo_int[0] 	363647
scalar abilene_cost_network.node[0].content_store 	p_hit[0] 	0.10978602175134
scalar abilene_cost_network.node[0].content_store 	hits[0] 	21118
scalar abilene_cost_network.node[0].content_store 	misses[0] 	171238
scalar abilene_cost_network.node[0].content_store 	decision_yes[0] 	1376
scalar abilene_cost_network.node[0].content_store 	decision_no[0] 	158875
scalar abilene_cost_network.node[0].content_store 	decision_ratio[0] 	0.0085865298812488
scalar abilene_cost_network.node[0].content_store 	correction_factor[0] 	0.00029644561705155
scalar abilene_cost_network.node[0].content_store 	xi[0] 	1
scalar abilene_cost_network.node[1].core_layer 	interests[1] 	255739
scalar abilene_cost_network.node[1].core_layer 	data[1] 	242836
scalar abilene_cost_network.node[1].content_store 	p_hit[1] 	0.050438142011973
scalar abilene_cost_network.node[1].content_store 	hits[1] 	12899
scalar abilene_cost_network.node[1].content_store 	misses[1] 	242840
scalar abilene_cost_network.node[1].content_store 	decision_yes[1] 	1134
scalar abilene_cost_network.node[1].content_store 	decision_no[1] 	241653
scalar abilene_cost_network.node[1].content_store 	decision_ratio[1] 	0.0046707607903224
scalar abilene_cost_network.node[1].content_store 	correction_factor[1] 	0.00029644561705155
scalar abilene_cost_network.node[1].content_store 	xi[1] 	1
scalar abilene_cost_network.node[2].core_layer 	interests[2] 	156255
scalar abilene_cost_network.node[2].core_layer 	data[2] 	144425
scalar abilene_cost_network.node[2].content_store 	p_hit[2] 	0.073712841189082
scalar abilene_cost_network.node[2].content_store 	hits[2] 	11518
scalar abilene_cost_network.node[2].content_store 	misses[2] 	144737
scalar abilene_cost_network.node[2].content_store 	decision_yes[2] 	1099
scalar abilene_cost_network.node[2].content_store 	decision_no[2] 	143275
scalar abilene_cost_network.node[2].content_store 	decision_ratio[2] 	0.0076121739371355
scalar abilene_cost_network.node[2].content_store 	correction_factor[2] 	0.00029644561705155
scalar abilene_cost_network.node[2].content_store 	xi[2] 	1
scalar abilene_cost_network.node[3].core_layer 	interests[3] 	146798
scalar abilene_cost_network.node[3].core_layer 	data[3] 	133947
scalar abilene_cost_network.node[3].content_store 	p_hit[3] 	0.087439883377158
scalar abilene_cost_network.node[3].content_store 	hits[3] 	12836
scalar abilene_cost_network.node[3].content_store 	misses[3] 	133962
scalar abilene_cost_network.node[3].content_store 	decision_yes[3] 	1046
scalar abilene_cost_network.node[3].content_store 	decision_no[3] 	132900
scalar abilene_cost_network.node[3].content_store 	decision_ratio[3] 	0.0078091171068938
scalar abilene_cost_network.node[3].content_store 	correction_factor[3] 	0.00029644561705155
scalar abilene_cost_network.node[3].content_store 	xi[3] 	1
scalar abilene_cost_network.node[4].core_layer 	interests[4] 	112510
scalar abilene_cost_network.node[4].core_layer 	data[4] 	107533
scalar abilene_cost_network.node[4].content_store 	p_hit[4] 	0.044227179806239
scalar abilene_cost_network.node[4].content_store 	hits[4] 	4976
scalar abilene_cost_network.node[4].content_store 	misses[4] 	107534
scalar abilene_cost_network.node[4].content_store 	decision_yes[4] 	1070
scalar abilene_cost_network.node[4].content_store 	decision_no[4] 	106463
scalar abilene_cost_network.node[4].content_store 	decision_ratio[4] 	0.0099504338203156
scalar abilene_cost_network.node[4].content_store 	correction_factor[4] 	0.00029644561705155
scalar abilene_cost_network.node[4].content_store 	xi[4] 	1
scalar abilene_cost_network.node[5].core_layer 	interests[5] 	179601
scalar abilene_cost_network.node[5].core_layer 	data[5] 	159083
scalar abilene_cost_network.node[5].content_store 	p_hit[5] 	0.028463093189904
scalar abilene_cost_network.node[5].content_store 	hits[5] 	5112
scalar abilene_cost_network.node[5].content_store 	misses[5] 	174489
scalar abilene_cost_network.node[5].content_store 	decision_yes[5] 	1008
scalar abilene_cost_network.node[5].content_store 	decision_no[5] 	158075
scalar abilene_cost_network.node[5].content_store 	decision_ratio[5] 	0.0063363150053746
scalar abilene_cost_network.node[5].content_store 	correction_factor[5] 	0.00029644561705155
scalar abilene_cost_network.node[5].content_store 	xi[5] 	1
scalar abilene_cost_network.node[6].core_layer 	interests[6] 	49476
scalar abilene_cost_network.node[6].core_layer 	data[6] 	43987
scalar abilene_cost_network.node[6].content_store 	p_hit[6] 	0.11096289109871
scalar abilene_cost_network.node[6].content_store 	hits[6] 	5490
scalar abilene_cost_network.node[6].content_store 	misses[6] 	43986
scalar abilene_cost_network.node[6].content_store 	decision_yes[6] 	6
scalar abilene_cost_network.node[6].content_store 	decision_no[6] 	43978
scalar abilene_cost_network.node[6].content_store 	decision_ratio[6] 	0.00013641324117861
scalar abilene_cost_network.node[6].content_store 	correction_factor[6] 	0.00029644561705155
scalar abilene_cost_network.node[6].content_store 	xi[6] 	1
scalar abilene_cost_network.node[7].core_layer 	interests[7] 	107355
scalar abilene_cost_network.node[7].core_layer 	data[7] 	99092
scalar abilene_cost_network.node[7].content_store 	p_hit[7] 	0.076875785943831
scalar abilene_cost_network.node[7].content_store 	hits[7] 	8253
scalar abilene_cost_network.node[7].content_store 	misses[7] 	99102
scalar abilene_cost_network.node[7].content_store 	decision_yes[7] 	30
scalar abilene_cost_network.node[7].content_store 	decision_no[7] 	99059
scalar abilene_cost_network.node[7].content_store 	decision_ratio[7] 	0.00030275812653271
scalar abilene_cost_network.node[7].content_store 	correction_factor[7] 	0.00029644561705155
scalar abilene_cost_network.node[7].content_store 	xi[7] 	1
scalar abilene_cost_network.node[8].core_layer 	interests[8] 	64866
scalar abilene_cost_network.node[8].core_layer 	data[8] 	45129
scalar abilene_cost_network.node[8].content_store 	p_hit[8] 	0.30425800881818
scalar abilene_cost_network.node[8].content_store 	hits[8] 	19736
scalar abilene_cost_network.node[8].content_store 	misses[8] 	45130
scalar abilene_cost_network.node[8].content_store 	decision_yes[8] 	14
scalar abilene_cost_network.node[8].content_store 	decision_no[8] 	45115
scalar abilene_cost_network.node[8].content_store 	decision_ratio[8] 	0.00031022180859314
scalar abilene_cost_network.node[8].content_store 	correction_factor[8] 	0.00029644561705155
scalar abilene_cost_network.node[8].content_store 	xi[8] 	1
scalar abilene_cost_network.node[9].core_layer 	interests[9] 	192177
scalar abilene_cost_network.node[9].core_layer 	data[9] 	161704
scalar abilene_cost_network.node[9].content_store 	p_hit[9] 	0.1039354345213
scalar abilene_cost_network.node[9].content_store 	hits[9] 	19974
scalar abilene_cost_network.node[9].content_store 	misses[9] 	172203
scalar abilene_cost_network.node[9].content_store 	decision_yes[9] 	1314
scalar abilene_cost_network.node[9].content_store 	decision_no[9] 	160389
scalar abilene_cost_network.node[9].content_store 	decision_ratio[9] 	0.0081260087938999
scalar abilene_cost_network.node[9].content_store 	correction_factor[9] 	0.00029644561705155
scalar abilene_cost_network.node[9].content_store 	xi[9] 	1
scalar abilene_cost_network.node[10].core_layer 	interests[10] 	213911
scalar abilene_cost_network.node[10].core_layer 	data[10] 	196793
scalar abilene_cost_network.node[10].content_store 	p_hit[10] 	0.080000560980969
scalar abilene_cost_network.node[10].content_store 	hits[10] 	17113
scalar abilene_cost_network.node[10].content_store 	misses[10] 	196798
scalar abilene_cost_network.node[10].content_store 	decision_yes[10] 	3721
scalar abilene_cost_network.node[10].content_store 	decision_no[10] 	193000
scalar abilene_cost_network.node[10].content_store 	decision_ratio[10] 	0.018915113282263
scalar abilene_cost_network.node[10].content_store 	correction_factor[10] 	0.00029644561705155
scalar abilene_cost_network.node[10].content_store 	xi[10] 	1
scalar abilene_cost_network.node[11].core_layer 	interests[11] 	127108
scalar abilene_cost_network.node[11].core_layer 	repo_load[11] 	127108
scalar abilene_cost_network.node[11].core_layer 	data[11] 	0
scalar abilene_cost_network.node[11].content_store 	p_hit[11] 	0
scalar abilene_cost_network.node[11].content_store 	hits[11] 	0
scalar abilene_cost_network.node[11].content_store 	misses[11] 	127108
scalar abilene_cost_network.node[11].content_store 	decision_yes[11] 	0
scalar abilene_cost_network.node[11].content_store 	decision_no[11] 	127108
scalar abilene_cost_network.node[11].content_store 	decision_ratio[11] 	0
scalar abilene_cost_network.node[12].core_layer 	interests[12] 	84654
scalar abilene_cost_network.node[12].core_layer 	repo_load[12] 	84654
scalar abilene_cost_network.node[12].core_layer 	data[12] 	0
scalar abilene_cost_network.node[12].content_store 	p_hit[12] 	0
scalar abilene_cost_network.node[12].content_store 	hits[12] 	0
scalar abilene_cost_network.node[12].content_store 	misses[12] 	84654
scalar abilene_cost_network.node[12].content_store 	decision_yes[12] 	0
scalar abilene_cost_network.node[12].content_store 	decision_no[12] 	84654
scalar abilene_cost_network.node[12].content_store 	decision_ratio[12] 	0
scalar abilene_cost_network.node[13].core_layer 	interests[13] 	151885
scalar abilene_cost_network.node[13].core_layer 	repo_load[13] 	151885
scalar abilene_cost_network.node[13].core_layer 	data[13] 	0
scalar abilene_cost_network.node[13].content_store 	p_hit[13] 	0
scalar abilene_cost_network.node[13].content_store 	hits[13] 	0
scalar abilene_cost_network.node[13].content_store 	misses[13] 	151885
scalar abilene_cost_network.node[13].content_store 	decision_yes[13] 	0
scalar abilene_cost_network.node[13].content_store 	decision_no[13] 	151885
scalar abilene_cost_network.node[13].content_store 	decision_ratio[13] 	0
scalar abilene_cost_network.client[0] 	hdistance[0] 	3.1682495003134
scalar abilene_cost_network.client[0] 	downloads[0] 	169106
scalar abilene_cost_network.client[0] 	avg_time[0] 	0.012852332028
scalar abilene_cost_network.client[0] 	interests_sent[0] 	180077
scalar abilene_cost_network.client[5] 	hdistance[5] 	4.9031422388833
scalar abilene_cost_network.client[5] 	downloads[5] 	164055
scalar abilene_cost_network.client[5] 	avg_time[5] 	0.018406946519
scalar abilene_cost_network.client[5] 	interests_sent[5] 	179460
scalar abilene_cost_network.client[9] 	hdistance[9] 	3.0519319192026
scalar abilene_cost_network.client[9] 	downloads[9] 	169857
scalar abilene_cost_network.client[9] 	avg_time[9] 	0.011668439095
scalar abilene_cost_network.client[9] 	interests_sent[9] 	180350
