version 2
run General-4-20140725-16:13:21-29486
attr D costprobprodcorr0.01
attr F nrr
attr R lru
attr a 1
attr configname General
attr csize 10
attr ctlg 100
attr datetime 20140725-16:13:21
attr experiment General
attr inifile omnetpp.ini
attr iterationvars "$net=abilene_cost, $rep=18, $priceratiovalue=100, $weights=0.333_0.333_0.334, $lambda=100, $a=1, $ctlg=100, $F=nrr, $ttl=10, $D=costprobprodcorr0.01, $xi=1, $R=lru, $csize=10, $pricebits=0, $window=60, $variance=0.05, $mytime=1800"
attr iterationvars2 "$net=abilene_cost, $rep=18, $priceratiovalue=100, $weights=0.333_0.333_0.334, $lambda=100, $a=1, $ctlg=100, $F=nrr, $ttl=10, $D=costprobprodcorr0.01, $xi=1, $R=lru, $csize=10, $pricebits=0, $window=60, $variance=0.05, $mytime=1800, $repetition=0"
attr lambda 100
attr measurement "$net=abilene_cost, $rep=18, $priceratiovalue=100, $weights=0.333_0.333_0.334, $lambda=100, $a=1, $ctlg=100, $F=nrr, $ttl=10, $D=costprobprodcorr0.01, $xi=1, $R=lru, $csize=10, $pricebits=0, $window=60, $variance=0.05, $mytime=1800"
attr mytime 1800
attr net abilene_cost
attr network networks.${net=abilene_cost}_network
attr pricebits 0
attr priceratiovalue 100
attr processid 29486
attr rep 18
attr repetition 0
attr replication #0
attr resultdir results
attr runnumber 4
attr seedset 18
attr ttl 10
attr variance 0.05
attr weights 0.333_0.333_0.334
attr window 60
attr xi 1

scalar . 	a 	1
scalar . 	csize 	10
scalar . 	ctlg 	100
scalar . 	lambda 	100
scalar . 	mytime 	1800
scalar . 	pricebits 	0
scalar . 	priceratiovalue 	100
scalar . 	rep 	18
scalar . 	ttl 	10
scalar . 	variance 	0.05
scalar . 	window 	60
scalar . 	xi 	1
scalar abilene_cost_network.content_distribution 	repo-0 	11
scalar abilene_cost_network.content_distribution 	repo-1 	12
scalar abilene_cost_network.content_distribution 	repo-2 	13
scalar abilene_cost_network.content_distribution 	client-0 	5
scalar abilene_cost_network.content_distribution 	client-1 	0
scalar abilene_cost_network.content_distribution 	client-2 	9
scalar abilene_cost_network.content_distribution 	repo-0_card 	30
scalar abilene_cost_network.content_distribution 	repo-1_card 	36
scalar abilene_cost_network.content_distribution 	repo-2_card 	34
scalar abilene_cost_network.statistics 	popularity_indication[0] 	1.2880001482111
scalar abilene_cost_network.statistics 	repo_popularity[0] 	0.24829504770594
scalar abilene_cost_network.statistics 	popularity_indication[1] 	1.1030355753975
scalar abilene_cost_network.statistics 	repo_popularity[1] 	0.21263838454915
scalar abilene_cost_network.statistics 	popularity_indication[2] 	2.7963417940311
scalar abilene_cost_network.statistics 	repo_popularity[2] 	0.53906656774491
scalar abilene_cost_network.statistics 	stabilization_time 	189.9
scalar abilene_cost_network.node[1].face$o[4].channel 	price[1] 	0
scalar abilene_cost_network.node[1].face$o[4].channel 	represented_price[1] 	0
scalar abilene_cost_network.node[7].face$o[4].channel 	price[7] 	0
scalar abilene_cost_network.node[7].face$o[4].channel 	represented_price[7] 	0
scalar abilene_cost_network.node[10].face$o[4].channel 	price[10] 	0
scalar abilene_cost_network.node[10].face$o[4].channel 	represented_price[10] 	0
scalar abilene_cost_network.node[11].face$o[1].channel 	price[11] 	0
scalar abilene_cost_network.node[11].face$o[1].channel 	represented_price[11] 	0
scalar abilene_cost_network.node[12].face$o[1].channel 	price[12] 	1
scalar abilene_cost_network.node[12].face$o[1].channel 	represented_price[12] 	1
scalar abilene_cost_network.node[13].face$o[1].channel 	price[13] 	100
scalar abilene_cost_network.node[13].face$o[1].channel 	represented_price[13] 	100
scalar abilene_cost_network.statistics 	p_hit 	0.031432029442672
scalar abilene_cost_network.statistics 	interests 	153208.14285714
scalar abilene_cost_network.statistics 	data 	114628.57142857
scalar abilene_cost_network.statistics 	hdistance 	4.0875734793341
scalar abilene_cost_network.statistics 	avg_time 	0.01478539167
scalar abilene_cost_network.statistics 	downloads 	499694
scalar abilene_cost_network.statistics 	total_cost 	25796887
scalar abilene_cost_network.statistics 	total_cost_other 	8624487
scalar abilene_cost_network.statistics 	total_replicas 	100
scalar abilene_cost_network.statistics 	inner_hit 	0.13525677714761
scalar abilene_cost_network.statistics 	interests_sent 	540119
scalar abilene_cost_network.node[0].core_layer 	interests[0] 	184221
scalar abilene_cost_network.node[0].core_layer 	data[0] 	165725
scalar abilene_cost_network.node[0].core_layer 	repo_int[0] 	432107
scalar abilene_cost_network.node[0].content_store 	p_hit[0] 	0.039724027119601
scalar abilene_cost_network.node[0].content_store 	hits[0] 	7318
scalar abilene_cost_network.node[0].content_store 	misses[0] 	176903
scalar abilene_cost_network.node[0].content_store 	decision_yes[0] 	872
scalar abilene_cost_network.node[0].content_store 	decision_no[0] 	164853
scalar abilene_cost_network.node[0].content_store 	decision_ratio[0] 	0.0052617287675366
scalar abilene_cost_network.node[0].content_store 	correction_factor[0] 	0.00029644561705155
scalar abilene_cost_network.node[0].content_store 	xi[0] 	1
scalar abilene_cost_network.node[1].core_layer 	interests[1] 	335046
scalar abilene_cost_network.node[1].core_layer 	data[1] 	327932
scalar abilene_cost_network.node[1].content_store 	p_hit[1] 	0.021232905332402
scalar abilene_cost_network.node[1].content_store 	hits[1] 	7114
scalar abilene_cost_network.node[1].content_store 	misses[1] 	327932
scalar abilene_cost_network.node[1].content_store 	decision_yes[1] 	792
scalar abilene_cost_network.node[1].content_store 	decision_no[1] 	327114
scalar abilene_cost_network.node[1].content_store 	decision_ratio[1] 	0.0024153263435253
scalar abilene_cost_network.node[1].content_store 	correction_factor[1] 	0.00029644561705155
scalar abilene_cost_network.node[1].content_store 	xi[1] 	1
scalar abilene_cost_network.node[2].core_layer 	interests[2] 	162216
scalar abilene_cost_network.node[2].core_layer 	data[2] 	155675
scalar abilene_cost_network.node[2].content_store 	p_hit[2] 	0.040033042363269
scalar abilene_cost_network.node[2].content_store 	hits[2] 	6494
scalar abilene_cost_network.node[2].content_store 	misses[2] 	155722
scalar abilene_cost_network.node[2].content_store 	decision_yes[2] 	763
scalar abilene_cost_network.node[2].content_store 	decision_no[2] 	154879
scalar abilene_cost_network.node[2].content_store 	decision_ratio[2] 	0.0049022757353414
scalar abilene_cost_network.node[2].content_store 	correction_factor[2] 	0.00029644561705155
scalar abilene_cost_network.node[2].content_store 	xi[2] 	1
scalar abilene_cost_network.node[3].core_layer 	interests[3] 	158897
scalar abilene_cost_network.node[3].core_layer 	data[3] 	152165
scalar abilene_cost_network.node[3].content_store 	p_hit[3] 	0.042367067974852
scalar abilene_cost_network.node[3].content_store 	hits[3] 	6732
scalar abilene_cost_network.node[3].content_store 	misses[3] 	152165
scalar abilene_cost_network.node[3].content_store 	decision_yes[3] 	774
scalar abilene_cost_network.node[3].content_store 	decision_no[3] 	151391
scalar abilene_cost_network.node[3].content_store 	decision_ratio[3] 	0.0050865836427562
scalar abilene_cost_network.node[3].content_store 	correction_factor[3] 	0.00029644561705155
scalar abilene_cost_network.node[3].content_store 	xi[3] 	1
scalar abilene_cost_network.node[4].core_layer 	interests[4] 	121277
scalar abilene_cost_network.node[4].core_layer 	data[4] 	119154
scalar abilene_cost_network.node[4].content_store 	p_hit[4] 	0.017505380245224
scalar abilene_cost_network.node[4].content_store 	hits[4] 	2123
scalar abilene_cost_network.node[4].content_store 	misses[4] 	119154
scalar abilene_cost_network.node[4].content_store 	decision_yes[4] 	723
scalar abilene_cost_network.node[4].content_store 	decision_no[4] 	118431
scalar abilene_cost_network.node[4].content_store 	decision_ratio[4] 	0.0060677778337278
scalar abilene_cost_network.node[4].content_store 	correction_factor[4] 	0.00029644561705155
scalar abilene_cost_network.node[4].content_store 	xi[4] 	1
scalar abilene_cost_network.node[5].core_layer 	interests[5] 	180116
scalar abilene_cost_network.node[5].core_layer 	data[5] 	161096
scalar abilene_cost_network.node[5].content_store 	p_hit[5] 	0.013063803326745
scalar abilene_cost_network.node[5].content_store 	hits[5] 	2353
scalar abilene_cost_network.node[5].content_store 	misses[5] 	177763
scalar abilene_cost_network.node[5].content_store 	decision_yes[5] 	792
scalar abilene_cost_network.node[5].content_store 	decision_no[5] 	160304
scalar abilene_cost_network.node[5].content_store 	decision_ratio[5] 	0.0049163231861747
scalar abilene_cost_network.node[5].content_store 	correction_factor[5] 	0.00029644561705155
scalar abilene_cost_network.node[5].content_store 	xi[5] 	1
scalar abilene_cost_network.node[6].core_layer 	interests[6] 	46597
scalar abilene_cost_network.node[6].core_layer 	data[6] 	36047
scalar abilene_cost_network.node[6].content_store 	p_hit[6] 	0.22643088610855
scalar abilene_cost_network.node[6].content_store 	hits[6] 	10551
scalar abilene_cost_network.node[6].content_store 	misses[6] 	36046
scalar abilene_cost_network.node[6].content_store 	decision_yes[6] 	6
scalar abilene_cost_network.node[6].content_store 	decision_no[6] 	36041
scalar abilene_cost_network.node[6].content_store 	decision_ratio[6] 	0.00016644935778289
scalar abilene_cost_network.node[6].content_store 	correction_factor[6] 	0.00029644561705155
scalar abilene_cost_network.node[6].content_store 	xi[6] 	1
scalar abilene_cost_network.node[7].core_layer 	interests[7] 	107167
scalar abilene_cost_network.node[7].core_layer 	data[7] 	99693
scalar abilene_cost_network.node[7].content_store 	p_hit[7] 	0.068631201769201
scalar abilene_cost_network.node[7].content_store 	hits[7] 	7355
scalar abilene_cost_network.node[7].content_store 	misses[7] 	99812
scalar abilene_cost_network.node[7].content_store 	decision_yes[7] 	28
scalar abilene_cost_network.node[7].content_store 	decision_no[7] 	99665
scalar abilene_cost_network.node[7].content_store 	decision_ratio[7] 	0.00028086224709859
scalar abilene_cost_network.node[7].content_store 	correction_factor[7] 	0.00029644561705155
scalar abilene_cost_network.node[7].content_store 	xi[7] 	1
scalar abilene_cost_network.node[8].core_layer 	interests[8] 	45830
scalar abilene_cost_network.node[8].core_layer 	data[8] 	42532
scalar abilene_cost_network.node[8].content_store 	p_hit[8] 	0.07198341697578
scalar abilene_cost_network.node[8].content_store 	hits[8] 	3299
scalar abilene_cost_network.node[8].content_store 	misses[8] 	42531
scalar abilene_cost_network.node[8].content_store 	decision_yes[8] 	7
scalar abilene_cost_network.node[8].content_store 	decision_no[8] 	42525
scalar abilene_cost_network.node[8].content_store 	decision_ratio[8] 	0.00016458196181698
scalar abilene_cost_network.node[8].content_store 	correction_factor[8] 	0.00029644561705155
scalar abilene_cost_network.node[8].content_store 	xi[8] 	1
scalar abilene_cost_network.node[9].core_layer 	interests[9] 	185085
scalar abilene_cost_network.node[9].core_layer 	data[9] 	165431
scalar abilene_cost_network.node[9].content_store 	p_hit[9] 	0.038220277169949
scalar abilene_cost_network.node[9].content_store 	hits[9] 	7074
scalar abilene_cost_network.node[9].content_store 	misses[9] 	178011
scalar abilene_cost_network.node[9].content_store 	decision_yes[9] 	855
scalar abilene_cost_network.node[9].content_store 	decision_no[9] 	164576
scalar abilene_cost_network.node[9].content_store 	decision_ratio[9] 	0.0051683179089772
scalar abilene_cost_network.node[9].content_store 	correction_factor[9] 	0.00029644561705155
scalar abilene_cost_network.node[9].content_store 	xi[9] 	1
scalar abilene_cost_network.node[10].core_layer 	interests[10] 	186355
scalar abilene_cost_network.node[10].core_layer 	data[10] 	179350
scalar abilene_cost_network.node[10].content_store 	p_hit[10] 	0.03759491293499
scalar abilene_cost_network.node[10].content_store 	hits[10] 	7006
scalar abilene_cost_network.node[10].content_store 	misses[10] 	179349
scalar abilene_cost_network.node[10].content_store 	decision_yes[10] 	2521
scalar abilene_cost_network.node[10].content_store 	decision_no[10] 	176813
scalar abilene_cost_network.node[10].content_store 	decision_ratio[10] 	0.014057568559225
scalar abilene_cost_network.node[10].content_store 	correction_factor[10] 	0.00029644561705155
scalar abilene_cost_network.node[10].content_store 	xi[10] 	1
scalar abilene_cost_network.node[11].core_layer 	interests[11] 	85348
scalar abilene_cost_network.node[11].core_layer 	repo_load[11] 	85348
scalar abilene_cost_network.node[11].core_layer 	data[11] 	0
scalar abilene_cost_network.node[11].content_store 	p_hit[11] 	0
scalar abilene_cost_network.node[11].content_store 	hits[11] 	0
scalar abilene_cost_network.node[11].content_store 	misses[11] 	85348
scalar abilene_cost_network.node[11].content_store 	decision_yes[11] 	0
scalar abilene_cost_network.node[11].content_store 	decision_no[11] 	85348
scalar abilene_cost_network.node[11].content_store 	decision_ratio[11] 	0
scalar abilene_cost_network.node[12].core_layer 	interests[12] 	89687
scalar abilene_cost_network.node[12].core_layer 	repo_load[12] 	89687
scalar abilene_cost_network.node[12].core_layer 	data[12] 	0
scalar abilene_cost_network.node[12].content_store 	p_hit[12] 	0
scalar abilene_cost_network.node[12].content_store 	hits[12] 	0
scalar abilene_cost_network.node[12].content_store 	misses[12] 	89687
scalar abilene_cost_network.node[12].content_store 	decision_yes[12] 	0
scalar abilene_cost_network.node[12].content_store 	decision_no[12] 	89687
scalar abilene_cost_network.node[12].content_store 	decision_ratio[12] 	0
scalar abilene_cost_network.node[13].core_layer 	interests[13] 	257072
scalar abilene_cost_network.node[13].core_layer 	repo_load[13] 	257072
scalar abilene_cost_network.node[13].core_layer 	data[13] 	0
scalar abilene_cost_network.node[13].content_store 	p_hit[13] 	0
scalar abilene_cost_network.node[13].content_store 	hits[13] 	0
scalar abilene_cost_network.node[13].content_store 	misses[13] 	257072
scalar abilene_cost_network.node[13].content_store 	decision_yes[13] 	0
scalar abilene_cost_network.node[13].content_store 	decision_no[13] 	257072
scalar abilene_cost_network.node[13].content_store 	decision_ratio[13] 	0
scalar abilene_cost_network.client[0] 	hdistance[0] 	3.4460358177759
scalar abilene_cost_network.client[0] 	downloads[0] 	168408
scalar abilene_cost_network.client[0] 	avg_time[0] 	0.013370986129
scalar abilene_cost_network.client[0] 	interests_sent[0] 	179586
scalar abilene_cost_network.client[5] 	hdistance[5] 	5.2657931937654
scalar abilene_cost_network.client[5] 	downloads[5] 	163409
scalar abilene_cost_network.client[5] 	avg_time[5] 	0.017883000239
scalar abilene_cost_network.client[5] 	interests_sent[5] 	180076
scalar abilene_cost_network.client[9] 	hdistance[9] 	3.550891426461
scalar abilene_cost_network.client[9] 	downloads[9] 	167877
scalar abilene_cost_network.client[9] 	avg_time[9] 	0.013102188642
scalar abilene_cost_network.client[9] 	interests_sent[9] 	180457
