version 2
run General-2-20140725-16:09:48-29486
attr D costprobprodcorr0.01
attr F nrr
attr R lru
attr a 1
attr configname General
attr csize 10
attr ctlg 100
attr datetime 20140725-16:09:48
attr experiment General
attr inifile omnetpp.ini
attr iterationvars "$net=abilene_cost, $rep=16, $priceratiovalue=100, $weights=0.333_0.333_0.334, $lambda=100, $a=1, $ctlg=100, $F=nrr, $ttl=10, $D=costprobprodcorr0.01, $xi=1, $R=lru, $csize=10, $pricebits=0, $window=60, $variance=0.05, $mytime=1800"
attr iterationvars2 "$net=abilene_cost, $rep=16, $priceratiovalue=100, $weights=0.333_0.333_0.334, $lambda=100, $a=1, $ctlg=100, $F=nrr, $ttl=10, $D=costprobprodcorr0.01, $xi=1, $R=lru, $csize=10, $pricebits=0, $window=60, $variance=0.05, $mytime=1800, $repetition=0"
attr lambda 100
attr measurement "$net=abilene_cost, $rep=16, $priceratiovalue=100, $weights=0.333_0.333_0.334, $lambda=100, $a=1, $ctlg=100, $F=nrr, $ttl=10, $D=costprobprodcorr0.01, $xi=1, $R=lru, $csize=10, $pricebits=0, $window=60, $variance=0.05, $mytime=1800"
attr mytime 1800
attr net abilene_cost
attr network networks.${net=abilene_cost}_network
attr pricebits 0
attr priceratiovalue 100
attr processid 29486
attr rep 16
attr repetition 0
attr replication #0
attr resultdir results
attr runnumber 2
attr seedset 16
attr ttl 10
attr variance 0.05
attr weights 0.333_0.333_0.334
attr window 60
attr xi 1

scalar . 	a 	1
scalar . 	csize 	10
scalar . 	ctlg 	100
scalar . 	lambda 	100
scalar . 	mytime 	1800
scalar . 	pricebits 	0
scalar . 	priceratiovalue 	100
scalar . 	rep 	16
scalar . 	ttl 	10
scalar . 	variance 	0.05
scalar . 	window 	60
scalar . 	xi 	1
scalar abilene_cost_network.content_distribution 	repo-0 	11
scalar abilene_cost_network.content_distribution 	repo-1 	12
scalar abilene_cost_network.content_distribution 	repo-2 	13
scalar abilene_cost_network.content_distribution 	client-0 	5
scalar abilene_cost_network.content_distribution 	client-1 	0
scalar abilene_cost_network.content_distribution 	client-2 	9
scalar abilene_cost_network.content_distribution 	repo-0_card 	30
scalar abilene_cost_network.content_distribution 	repo-1_card 	27
scalar abilene_cost_network.content_distribution 	repo-2_card 	43
scalar abilene_cost_network.statistics 	popularity_indication[0] 	1.5385691716807
scalar abilene_cost_network.statistics 	repo_popularity[0] 	0.29659865056067
scalar abilene_cost_network.statistics 	popularity_indication[1] 	1.6841507736452
scalar abilene_cost_network.statistics 	repo_popularity[1] 	0.32466323646549
scalar abilene_cost_network.statistics 	popularity_indication[2] 	1.9646575723138
scalar abilene_cost_network.statistics 	repo_popularity[2] 	0.37873811297384
scalar abilene_cost_network.statistics 	stabilization_time 	3684.6
scalar abilene_cost_network.node[1].face$o[4].channel 	price[1] 	0
scalar abilene_cost_network.node[1].face$o[4].channel 	represented_price[1] 	0
scalar abilene_cost_network.node[7].face$o[4].channel 	price[7] 	0
scalar abilene_cost_network.node[7].face$o[4].channel 	represented_price[7] 	0
scalar abilene_cost_network.node[10].face$o[4].channel 	price[10] 	0
scalar abilene_cost_network.node[10].face$o[4].channel 	represented_price[10] 	0
scalar abilene_cost_network.node[11].face$o[1].channel 	price[11] 	0
scalar abilene_cost_network.node[11].face$o[1].channel 	represented_price[11] 	0
scalar abilene_cost_network.node[12].face$o[1].channel 	price[12] 	1
scalar abilene_cost_network.node[12].face$o[1].channel 	represented_price[12] 	1
scalar abilene_cost_network.node[13].face$o[1].channel 	price[13] 	100
scalar abilene_cost_network.node[13].face$o[1].channel 	represented_price[13] 	100
scalar abilene_cost_network.statistics 	p_hit 	0.043428178129137
scalar abilene_cost_network.statistics 	interests 	149442.14285714
scalar abilene_cost_network.statistics 	data 	110838.92857143
scalar abilene_cost_network.statistics 	hdistance 	3.928796328747
scalar abilene_cost_network.statistics 	avg_time 	0.014820589083
scalar abilene_cost_network.statistics 	downloads 	498068
scalar abilene_cost_network.statistics 	total_cost 	11084645
scalar abilene_cost_network.statistics 	total_cost_other 	11087717
scalar abilene_cost_network.statistics 	total_replicas 	100
scalar abilene_cost_network.statistics 	inner_hit 	0.1825714561064
scalar abilene_cost_network.statistics 	interests_sent 	540443
scalar abilene_cost_network.node[0].core_layer 	interests[0] 	186090
scalar abilene_cost_network.node[0].core_layer 	data[0] 	159585
scalar abilene_cost_network.node[0].core_layer 	repo_int[0] 	407135
scalar abilene_cost_network.node[0].content_store 	p_hit[0] 	0.058288999946263
scalar abilene_cost_network.node[0].content_store 	hits[0] 	10847
scalar abilene_cost_network.node[0].content_store 	misses[0] 	175243
scalar abilene_cost_network.node[0].content_store 	decision_yes[0] 	1424
scalar abilene_cost_network.node[0].content_store 	decision_no[0] 	158161
scalar abilene_cost_network.node[0].content_store 	decision_ratio[0] 	0.0089231444058026
scalar abilene_cost_network.node[0].content_store 	correction_factor[0] 	0.00029644561705155
scalar abilene_cost_network.node[0].content_store 	xi[0] 	1
scalar abilene_cost_network.node[1].core_layer 	interests[1] 	221491
scalar abilene_cost_network.node[1].core_layer 	data[1] 	213887
scalar abilene_cost_network.node[1].content_store 	p_hit[1] 	0.034335480899901
scalar abilene_cost_network.node[1].content_store 	hits[1] 	7605
scalar abilene_cost_network.node[1].content_store 	misses[1] 	213886
scalar abilene_cost_network.node[1].content_store 	decision_yes[1] 	3354
scalar abilene_cost_network.node[1].content_store 	decision_no[1] 	210471
scalar abilene_cost_network.node[1].content_store 	decision_ratio[1] 	0.015685724307261
scalar abilene_cost_network.node[1].content_store 	correction_factor[1] 	0.00029644561705155
scalar abilene_cost_network.node[1].content_store 	xi[1] 	1
scalar abilene_cost_network.node[2].core_layer 	interests[2] 	145891
scalar abilene_cost_network.node[2].core_layer 	data[2] 	139035
scalar abilene_cost_network.node[2].content_store 	p_hit[2] 	0.046534741690714
scalar abilene_cost_network.node[2].content_store 	hits[2] 	6789
scalar abilene_cost_network.node[2].content_store 	misses[2] 	139102
scalar abilene_cost_network.node[2].content_store 	decision_yes[2] 	979
scalar abilene_cost_network.node[2].content_store 	decision_no[2] 	138019
scalar abilene_cost_network.node[2].content_store 	decision_ratio[2] 	0.0070432668095944
scalar abilene_cost_network.node[2].content_store 	correction_factor[2] 	0.00029644561705155
scalar abilene_cost_network.node[2].content_store 	xi[2] 	1
scalar abilene_cost_network.node[3].core_layer 	interests[3] 	140740
scalar abilene_cost_network.node[3].core_layer 	data[3] 	134301
scalar abilene_cost_network.node[3].content_store 	p_hit[3] 	0.045736819667472
scalar abilene_cost_network.node[3].content_store 	hits[3] 	6437
scalar abilene_cost_network.node[3].content_store 	misses[3] 	134303
scalar abilene_cost_network.node[3].content_store 	decision_yes[3] 	874
scalar abilene_cost_network.node[3].content_store 	decision_no[3] 	133415
scalar abilene_cost_network.node[3].content_store 	decision_ratio[3] 	0.0065083513914021
scalar abilene_cost_network.node[3].content_store 	correction_factor[3] 	0.00029644561705155
scalar abilene_cost_network.node[3].content_store 	xi[3] 	1
scalar abilene_cost_network.node[4].core_layer 	interests[4] 	92571
scalar abilene_cost_network.node[4].core_layer 	data[4] 	88163
scalar abilene_cost_network.node[4].content_store 	p_hit[4] 	0.047606701882879
scalar abilene_cost_network.node[4].content_store 	hits[4] 	4407
scalar abilene_cost_network.node[4].content_store 	misses[4] 	88164
scalar abilene_cost_network.node[4].content_store 	decision_yes[4] 	924
scalar abilene_cost_network.node[4].content_store 	decision_no[4] 	87239
scalar abilene_cost_network.node[4].content_store 	decision_ratio[4] 	0.010480587094359
scalar abilene_cost_network.node[4].content_store 	correction_factor[4] 	0.00029644561705155
scalar abilene_cost_network.node[4].content_store 	xi[4] 	1
scalar abilene_cost_network.node[5].core_layer 	interests[5] 	181426
scalar abilene_cost_network.node[5].core_layer 	data[5] 	165459
scalar abilene_cost_network.node[5].content_store 	p_hit[5] 	0.022312127258497
scalar abilene_cost_network.node[5].content_store 	hits[5] 	4048
scalar abilene_cost_network.node[5].content_store 	misses[5] 	177378
scalar abilene_cost_network.node[5].content_store 	decision_yes[5] 	969
scalar abilene_cost_network.node[5].content_store 	decision_no[5] 	164490
scalar abilene_cost_network.node[5].content_store 	decision_ratio[5] 	0.0058564357333237
scalar abilene_cost_network.node[5].content_store 	correction_factor[5] 	0.00029644561705155
scalar abilene_cost_network.node[5].content_store 	xi[5] 	1
scalar abilene_cost_network.node[6].core_layer 	interests[6] 	83833
scalar abilene_cost_network.node[6].core_layer 	data[6] 	65451
scalar abilene_cost_network.node[6].content_store 	p_hit[6] 	0.219269261508
scalar abilene_cost_network.node[6].content_store 	hits[6] 	18382
scalar abilene_cost_network.node[6].content_store 	misses[6] 	65451
scalar abilene_cost_network.node[6].content_store 	decision_yes[6] 	0
scalar abilene_cost_network.node[6].content_store 	decision_no[6] 	65451
scalar abilene_cost_network.node[6].content_store 	decision_ratio[6] 	0
scalar abilene_cost_network.node[6].content_store 	correction_factor[6] 	0.00029644561705155
scalar abilene_cost_network.node[6].content_store 	xi[6] 	1
scalar abilene_cost_network.node[7].core_layer 	interests[7] 	170946
scalar abilene_cost_network.node[7].core_layer 	data[7] 	161175
scalar abilene_cost_network.node[7].content_store 	p_hit[7] 	0.057152551098008
scalar abilene_cost_network.node[7].content_store 	hits[7] 	9770
scalar abilene_cost_network.node[7].content_store 	misses[7] 	161176
scalar abilene_cost_network.node[7].content_store 	decision_yes[7] 	1
scalar abilene_cost_network.node[7].content_store 	decision_no[7] 	161174
scalar abilene_cost_network.node[7].content_store 	decision_ratio[7] 	6.2044361718629e-06
scalar abilene_cost_network.node[7].content_store 	correction_factor[7] 	0.00029644561705155
scalar abilene_cost_network.node[7].content_store 	xi[7] 	1
scalar abilene_cost_network.node[8].core_layer 	interests[8] 	78181
scalar abilene_cost_network.node[8].core_layer 	data[8] 	69992
scalar abilene_cost_network.node[8].content_store 	p_hit[8] 	0.10475691024674
scalar abilene_cost_network.node[8].content_store 	hits[8] 	8190
scalar abilene_cost_network.node[8].content_store 	misses[8] 	69991
scalar abilene_cost_network.node[8].content_store 	decision_yes[8] 	3
scalar abilene_cost_network.node[8].content_store 	decision_no[8] 	69989
scalar abilene_cost_network.node[8].content_store 	decision_ratio[8] 	4.2862041376157e-05
scalar abilene_cost_network.node[8].content_store 	correction_factor[8] 	0.00029644561705155
scalar abilene_cost_network.node[8].content_store 	xi[8] 	1
scalar abilene_cost_network.node[9].core_layer 	interests[9] 	185271
scalar abilene_cost_network.node[9].core_layer 	data[9] 	163654
scalar abilene_cost_network.node[9].content_store 	p_hit[9] 	0.036773159317972
scalar abilene_cost_network.node[9].content_store 	hits[9] 	6813
scalar abilene_cost_network.node[9].content_store 	misses[9] 	178458
scalar abilene_cost_network.node[9].content_store 	decision_yes[9] 	947
scalar abilene_cost_network.node[9].content_store 	decision_no[9] 	162707
scalar abilene_cost_network.node[9].content_store 	decision_ratio[9] 	0.005786598555489
scalar abilene_cost_network.node[9].content_store 	correction_factor[9] 	0.00029644561705155
scalar abilene_cost_network.node[9].content_store 	xi[9] 	1
scalar abilene_cost_network.node[10].core_layer 	interests[10] 	198615
scalar abilene_cost_network.node[10].core_layer 	data[10] 	191043
scalar abilene_cost_network.node[10].content_store 	p_hit[10] 	0.038124008760668
scalar abilene_cost_network.node[10].content_store 	hits[10] 	7572
scalar abilene_cost_network.node[10].content_store 	misses[10] 	191043
scalar abilene_cost_network.node[10].content_store 	decision_yes[10] 	986
scalar abilene_cost_network.node[10].content_store 	decision_no[10] 	190049
scalar abilene_cost_network.node[10].content_store 	decision_ratio[10] 	0.0051613578663596
scalar abilene_cost_network.node[10].content_store 	correction_factor[10] 	0.00029644561705155
scalar abilene_cost_network.node[10].content_store 	xi[10] 	1
scalar abilene_cost_network.node[11].core_layer 	interests[11] 	150417
scalar abilene_cost_network.node[11].core_layer 	repo_load[11] 	150417
scalar abilene_cost_network.node[11].core_layer 	data[11] 	0
scalar abilene_cost_network.node[11].content_store 	p_hit[11] 	0
scalar abilene_cost_network.node[11].content_store 	hits[11] 	0
scalar abilene_cost_network.node[11].content_store 	misses[11] 	150417
scalar abilene_cost_network.node[11].content_store 	decision_yes[11] 	0
scalar abilene_cost_network.node[11].content_store 	decision_no[11] 	150417
scalar abilene_cost_network.node[11].content_store 	decision_ratio[11] 	0
scalar abilene_cost_network.node[12].core_layer 	interests[12] 	147345
scalar abilene_cost_network.node[12].core_layer 	repo_load[12] 	147345
scalar abilene_cost_network.node[12].core_layer 	data[12] 	0
scalar abilene_cost_network.node[12].content_store 	p_hit[12] 	0
scalar abilene_cost_network.node[12].content_store 	hits[12] 	0
scalar abilene_cost_network.node[12].content_store 	misses[12] 	147345
scalar abilene_cost_network.node[12].content_store 	decision_yes[12] 	0
scalar abilene_cost_network.node[12].content_store 	decision_no[12] 	147345
scalar abilene_cost_network.node[12].content_store 	decision_ratio[12] 	0
scalar abilene_cost_network.node[13].core_layer 	interests[13] 	109373
scalar abilene_cost_network.node[13].core_layer 	repo_load[13] 	109373
scalar abilene_cost_network.node[13].core_layer 	data[13] 	0
scalar abilene_cost_network.node[13].content_store 	p_hit[13] 	0
scalar abilene_cost_network.node[13].content_store 	hits[13] 	0
scalar abilene_cost_network.node[13].content_store 	misses[13] 	109373
scalar abilene_cost_network.node[13].content_store 	decision_yes[13] 	0
scalar abilene_cost_network.node[13].content_store 	decision_no[13] 	109373
scalar abilene_cost_network.node[13].content_store 	decision_ratio[13] 	0
scalar abilene_cost_network.client[0] 	hdistance[0] 	3.6595394036695
scalar abilene_cost_network.client[0] 	downloads[0] 	164439
scalar abilene_cost_network.client[0] 	avg_time[0] 	0.014045380659
scalar abilene_cost_network.client[0] 	interests_sent[0] 	180095
scalar abilene_cost_network.client[5] 	hdistance[5] 	4.8215966361495
scalar abilene_cost_network.client[5] 	downloads[5] 	167665
scalar abilene_cost_network.client[5] 	avg_time[5] 	0.016739358642
scalar abilene_cost_network.client[5] 	interests_sent[5] 	179583
scalar abilene_cost_network.client[9] 	hdistance[9] 	3.3052529464221
scalar abilene_cost_network.client[9] 	downloads[9] 	165964
scalar abilene_cost_network.client[9] 	avg_time[9] 	0.013677027949
scalar abilene_cost_network.client[9] 	interests_sent[9] 	180765
