version 2
run General-6-20140725-16:15:23-29486
attr D costprobprodcorr0.01
attr F nrr
attr R lru
attr a 1
attr configname General
attr csize 10
attr ctlg 100
attr datetime 20140725-16:15:23
attr experiment General
attr inifile omnetpp.ini
attr iterationvars "$net=abilene_cost, $rep=20, $priceratiovalue=100, $weights=0.333_0.333_0.334, $lambda=100, $a=1, $ctlg=100, $F=nrr, $ttl=10, $D=costprobprodcorr0.01, $xi=1, $R=lru, $csize=10, $pricebits=0, $window=60, $variance=0.05, $mytime=1800"
attr iterationvars2 "$net=abilene_cost, $rep=20, $priceratiovalue=100, $weights=0.333_0.333_0.334, $lambda=100, $a=1, $ctlg=100, $F=nrr, $ttl=10, $D=costprobprodcorr0.01, $xi=1, $R=lru, $csize=10, $pricebits=0, $window=60, $variance=0.05, $mytime=1800, $repetition=0"
attr lambda 100
attr measurement "$net=abilene_cost, $rep=20, $priceratiovalue=100, $weights=0.333_0.333_0.334, $lambda=100, $a=1, $ctlg=100, $F=nrr, $ttl=10, $D=costprobprodcorr0.01, $xi=1, $R=lru, $csize=10, $pricebits=0, $window=60, $variance=0.05, $mytime=1800"
attr mytime 1800
attr net abilene_cost
attr network networks.${net=abilene_cost}_network
attr pricebits 0
attr priceratiovalue 100
attr processid 29486
attr rep 20
attr repetition 0
attr replication #0
attr resultdir results
attr runnumber 6
attr seedset 20
attr ttl 10
attr variance 0.05
attr weights 0.333_0.333_0.334
attr window 60
attr xi 1

scalar . 	a 	1
scalar . 	csize 	10
scalar . 	ctlg 	100
scalar . 	lambda 	100
scalar . 	mytime 	1800
scalar . 	pricebits 	0
scalar . 	priceratiovalue 	100
scalar . 	rep 	20
scalar . 	ttl 	10
scalar . 	variance 	0.05
scalar . 	window 	60
scalar . 	xi 	1
scalar abilene_cost_network.content_distribution 	repo-0 	11
scalar abilene_cost_network.content_distribution 	repo-1 	12
scalar abilene_cost_network.content_distribution 	repo-2 	13
scalar abilene_cost_network.content_distribution 	client-0 	5
scalar abilene_cost_network.content_distribution 	client-1 	0
scalar abilene_cost_network.content_distribution 	client-2 	9
scalar abilene_cost_network.content_distribution 	repo-0_card 	32
scalar abilene_cost_network.content_distribution 	repo-1_card 	32
scalar abilene_cost_network.content_distribution 	repo-2_card 	36
scalar abilene_cost_network.statistics 	popularity_indication[0] 	1.6313173387741
scalar abilene_cost_network.statistics 	repo_popularity[0] 	0.31447823745753
scalar abilene_cost_network.statistics 	popularity_indication[1] 	1.3353585059269
scalar abilene_cost_network.statistics 	repo_popularity[1] 	0.25742458523329
scalar abilene_cost_network.statistics 	popularity_indication[2] 	2.2207016729387
scalar abilene_cost_network.statistics 	repo_popularity[2] 	0.42809717730919
scalar abilene_cost_network.statistics 	stabilization_time 	399.9
scalar abilene_cost_network.node[1].face$o[4].channel 	price[1] 	0
scalar abilene_cost_network.node[1].face$o[4].channel 	represented_price[1] 	0
scalar abilene_cost_network.node[7].face$o[4].channel 	price[7] 	0
scalar abilene_cost_network.node[7].face$o[4].channel 	represented_price[7] 	0
scalar abilene_cost_network.node[10].face$o[4].channel 	price[10] 	0
scalar abilene_cost_network.node[10].face$o[4].channel 	represented_price[10] 	0
scalar abilene_cost_network.node[11].face$o[1].channel 	price[11] 	0
scalar abilene_cost_network.node[11].face$o[1].channel 	represented_price[11] 	0
scalar abilene_cost_network.node[12].face$o[1].channel 	price[12] 	1
scalar abilene_cost_network.node[12].face$o[1].channel 	represented_price[12] 	1
scalar abilene_cost_network.node[13].face$o[1].channel 	price[13] 	100
scalar abilene_cost_network.node[13].face$o[1].channel 	represented_price[13] 	100
scalar abilene_cost_network.statistics 	p_hit 	0.040605380494531
scalar abilene_cost_network.statistics 	interests 	150280.92857143
scalar abilene_cost_network.statistics 	data 	111689.85714286
scalar abilene_cost_network.statistics 	hdistance 	3.9627538936751
scalar abilene_cost_network.statistics 	avg_time 	0.014291311301
scalar abilene_cost_network.statistics 	downloads 	501584
scalar abilene_cost_network.statistics 	total_cost 	20547077
scalar abilene_cost_network.statistics 	total_cost_other 	7733056
scalar abilene_cost_network.statistics 	total_replicas 	100
scalar abilene_cost_network.statistics 	inner_hit 	0.17053973013493
scalar abilene_cost_network.statistics 	interests_sent 	540273
scalar abilene_cost_network.node[0].core_layer 	interests[0] 	182780
scalar abilene_cost_network.node[0].core_layer 	data[0] 	166674
scalar abilene_cost_network.node[0].core_layer 	repo_int[0] 	416044
scalar abilene_cost_network.node[0].content_store 	p_hit[0] 	0.03045738045738
scalar abilene_cost_network.node[0].content_store 	hits[0] 	5567
scalar abilene_cost_network.node[0].content_store 	misses[0] 	177213
scalar abilene_cost_network.node[0].content_store 	decision_yes[0] 	763
scalar abilene_cost_network.node[0].content_store 	decision_no[0] 	165911
scalar abilene_cost_network.node[0].content_store 	decision_ratio[0] 	0.0045777985768626
scalar abilene_cost_network.node[0].content_store 	correction_factor[0] 	0.00029644561705155
scalar abilene_cost_network.node[0].content_store 	xi[0] 	1
scalar abilene_cost_network.node[1].core_layer 	interests[1] 	292688
scalar abilene_cost_network.node[1].core_layer 	data[1] 	285730
scalar abilene_cost_network.node[1].content_store 	p_hit[1] 	0.023772754605587
scalar abilene_cost_network.node[1].content_store 	hits[1] 	6958
scalar abilene_cost_network.node[1].content_store 	misses[1] 	285730
scalar abilene_cost_network.node[1].content_store 	decision_yes[1] 	718
scalar abilene_cost_network.node[1].content_store 	decision_no[1] 	285012
scalar abilene_cost_network.node[1].content_store 	decision_ratio[1] 	0.0025128617926014
scalar abilene_cost_network.node[1].content_store 	correction_factor[1] 	0.00029644561705155
scalar abilene_cost_network.node[1].content_store 	xi[1] 	1
scalar abilene_cost_network.node[2].core_layer 	interests[2] 	156114
scalar abilene_cost_network.node[2].core_layer 	data[2] 	148816
scalar abilene_cost_network.node[2].content_store 	p_hit[2] 	0.046472449620149
scalar abilene_cost_network.node[2].content_store 	hits[2] 	7255
scalar abilene_cost_network.node[2].content_store 	misses[2] 	148859
scalar abilene_cost_network.node[2].content_store 	decision_yes[2] 	722
scalar abilene_cost_network.node[2].content_store 	decision_no[2] 	148086
scalar abilene_cost_network.node[2].content_store 	decision_ratio[2] 	0.0048518896833504
scalar abilene_cost_network.node[2].content_store 	correction_factor[2] 	0.00029644561705155
scalar abilene_cost_network.node[2].content_store 	xi[2] 	1
scalar abilene_cost_network.node[3].core_layer 	interests[3] 	151244
scalar abilene_cost_network.node[3].core_layer 	data[3] 	144778
scalar abilene_cost_network.node[3].content_store 	p_hit[3] 	0.042738885509508
scalar abilene_cost_network.node[3].content_store 	hits[3] 	6464
scalar abilene_cost_network.node[3].content_store 	misses[3] 	144780
scalar abilene_cost_network.node[3].content_store 	decision_yes[3] 	713
scalar abilene_cost_network.node[3].content_store 	decision_no[3] 	144051
scalar abilene_cost_network.node[3].content_store 	decision_ratio[3] 	0.0049252576607444
scalar abilene_cost_network.node[3].content_store 	correction_factor[3] 	0.00029644561705155
scalar abilene_cost_network.node[3].content_store 	xi[3] 	1
scalar abilene_cost_network.node[4].core_layer 	interests[4] 	125986
scalar abilene_cost_network.node[4].core_layer 	data[4] 	118397
scalar abilene_cost_network.node[4].content_store 	p_hit[4] 	0.060220976933945
scalar abilene_cost_network.node[4].content_store 	hits[4] 	7587
scalar abilene_cost_network.node[4].content_store 	misses[4] 	118399
scalar abilene_cost_network.node[4].content_store 	decision_yes[4] 	14
scalar abilene_cost_network.node[4].content_store 	decision_no[4] 	118383
scalar abilene_cost_network.node[4].content_store 	decision_ratio[4] 	0.00011824623934728
scalar abilene_cost_network.node[4].content_store 	correction_factor[4] 	0.00029644561705155
scalar abilene_cost_network.node[4].content_store 	xi[4] 	1
scalar abilene_cost_network.node[5].core_layer 	interests[5] 	184588
scalar abilene_cost_network.node[5].core_layer 	data[5] 	160515
scalar abilene_cost_network.node[5].content_store 	p_hit[5] 	0.035088954861638
scalar abilene_cost_network.node[5].content_store 	hits[5] 	6477
scalar abilene_cost_network.node[5].content_store 	misses[5] 	178111
scalar abilene_cost_network.node[5].content_store 	decision_yes[5] 	827
scalar abilene_cost_network.node[5].content_store 	decision_no[5] 	159688
scalar abilene_cost_network.node[5].content_store 	decision_ratio[5] 	0.0051521664641934
scalar abilene_cost_network.node[5].content_store 	correction_factor[5] 	0.00029644561705155
scalar abilene_cost_network.node[5].content_store 	xi[5] 	1
scalar abilene_cost_network.node[6].core_layer 	interests[6] 	42720
scalar abilene_cost_network.node[6].core_layer 	data[6] 	36206
scalar abilene_cost_network.node[6].content_store 	p_hit[6] 	0.15243445692884
scalar abilene_cost_network.node[6].content_store 	hits[6] 	6512
scalar abilene_cost_network.node[6].content_store 	misses[6] 	36208
scalar abilene_cost_network.node[6].content_store 	decision_yes[6] 	811
scalar abilene_cost_network.node[6].content_store 	decision_no[6] 	35377
scalar abilene_cost_network.node[6].content_store 	decision_ratio[6] 	0.022410743893003
scalar abilene_cost_network.node[6].content_store 	correction_factor[6] 	0.00029644561705155
scalar abilene_cost_network.node[6].content_store 	xi[6] 	1
scalar abilene_cost_network.node[7].core_layer 	interests[7] 	93861
scalar abilene_cost_network.node[7].core_layer 	data[7] 	86854
scalar abilene_cost_network.node[7].content_store 	p_hit[7] 	0.074024355163486
scalar abilene_cost_network.node[7].content_store 	hits[7] 	6948
scalar abilene_cost_network.node[7].content_store 	misses[7] 	86913
scalar abilene_cost_network.node[7].content_store 	decision_yes[7] 	2206
scalar abilene_cost_network.node[7].content_store 	decision_no[7] 	84589
scalar abilene_cost_network.node[7].content_store 	decision_ratio[7] 	0.02541621061121
scalar abilene_cost_network.node[7].content_store 	correction_factor[7] 	0.00029644561705155
scalar abilene_cost_network.node[7].content_store 	xi[7] 	1
scalar abilene_cost_network.node[8].core_layer 	interests[8] 	44764
scalar abilene_cost_network.node[8].core_layer 	data[8] 	37707
scalar abilene_cost_network.node[8].content_store 	p_hit[8] 	0.15760432490394
scalar abilene_cost_network.node[8].content_store 	hits[8] 	7055
scalar abilene_cost_network.node[8].content_store 	misses[8] 	37709
scalar abilene_cost_network.node[8].content_store 	decision_yes[8] 	715
scalar abilene_cost_network.node[8].content_store 	decision_no[8] 	36978
scalar abilene_cost_network.node[8].content_store 	decision_ratio[8] 	0.018969039344175
scalar abilene_cost_network.node[8].content_store 	correction_factor[8] 	0.00029644561705155
scalar abilene_cost_network.node[8].content_store 	xi[8] 	1
scalar abilene_cost_network.node[9].core_layer 	interests[9] 	184385
scalar abilene_cost_network.node[9].core_layer 	data[9] 	166594
scalar abilene_cost_network.node[9].content_store 	p_hit[9] 	0.039243973208233
scalar abilene_cost_network.node[9].content_store 	hits[9] 	7236
scalar abilene_cost_network.node[9].content_store 	misses[9] 	177149
scalar abilene_cost_network.node[9].content_store 	decision_yes[9] 	744
scalar abilene_cost_network.node[9].content_store 	decision_no[9] 	165850
scalar abilene_cost_network.node[9].content_store 	decision_ratio[9] 	0.0044659471529587
scalar abilene_cost_network.node[9].content_store 	correction_factor[9] 	0.00029644561705155
scalar abilene_cost_network.node[9].content_store 	xi[9] 	1
scalar abilene_cost_network.node[10].core_layer 	interests[10] 	228759
scalar abilene_cost_network.node[10].core_layer 	data[10] 	211387
scalar abilene_cost_network.node[10].content_store 	p_hit[10] 	0.075940181588484
scalar abilene_cost_network.node[10].content_store 	hits[10] 	17372
scalar abilene_cost_network.node[10].content_store 	misses[10] 	211387
scalar abilene_cost_network.node[10].content_store 	decision_yes[10] 	49
scalar abilene_cost_network.node[10].content_store 	decision_no[10] 	211338
scalar abilene_cost_network.node[10].content_store 	decision_ratio[10] 	0.00023180233410758
scalar abilene_cost_network.node[10].content_store 	correction_factor[10] 	0.00029644561705155
scalar abilene_cost_network.node[10].content_store 	xi[10] 	1
scalar abilene_cost_network.node[11].core_layer 	interests[11] 	135356
scalar abilene_cost_network.node[11].core_layer 	repo_load[11] 	135356
scalar abilene_cost_network.node[11].core_layer 	data[11] 	0
scalar abilene_cost_network.node[11].content_store 	p_hit[11] 	0
scalar abilene_cost_network.node[11].content_store 	hits[11] 	0
scalar abilene_cost_network.node[11].content_store 	misses[11] 	135356
scalar abilene_cost_network.node[11].content_store 	decision_yes[11] 	0
scalar abilene_cost_network.node[11].content_store 	decision_no[11] 	135356
scalar abilene_cost_network.node[11].content_store 	decision_ratio[11] 	0
scalar abilene_cost_network.node[12].core_layer 	interests[12] 	75977
scalar abilene_cost_network.node[12].core_layer 	repo_load[12] 	75977
scalar abilene_cost_network.node[12].core_layer 	data[12] 	0
scalar abilene_cost_network.node[12].content_store 	p_hit[12] 	0
scalar abilene_cost_network.node[12].content_store 	hits[12] 	0
scalar abilene_cost_network.node[12].content_store 	misses[12] 	75977
scalar abilene_cost_network.node[12].content_store 	decision_yes[12] 	0
scalar abilene_cost_network.node[12].content_store 	decision_no[12] 	75977
scalar abilene_cost_network.node[12].content_store 	decision_ratio[12] 	0
scalar abilene_cost_network.node[13].core_layer 	interests[13] 	204711
scalar abilene_cost_network.node[13].core_layer 	repo_load[13] 	204711
scalar abilene_cost_network.node[13].core_layer 	data[13] 	0
scalar abilene_cost_network.node[13].content_store 	p_hit[13] 	0
scalar abilene_cost_network.node[13].content_store 	hits[13] 	0
scalar abilene_cost_network.node[13].content_store 	misses[13] 	204711
scalar abilene_cost_network.node[13].content_store 	decision_yes[13] 	0
scalar abilene_cost_network.node[13].content_store 	decision_no[13] 	204711
scalar abilene_cost_network.node[13].content_store 	decision_ratio[13] 	0
scalar abilene_cost_network.client[0] 	hdistance[0] 	3.311019233378
scalar abilene_cost_network.client[0] 	downloads[0] 	169549
scalar abilene_cost_network.client[0] 	avg_time[0] 	0.012633823637
scalar abilene_cost_network.client[0] 	interests_sent[0] 	180088
scalar abilene_cost_network.client[5] 	hdistance[5] 	5.2208535866843
scalar abilene_cost_network.client[5] 	downloads[5] 	162936
scalar abilene_cost_network.client[5] 	avg_time[5] 	0.018562940402
scalar abilene_cost_network.client[5] 	interests_sent[5] 	180531
scalar abilene_cost_network.client[9] 	hdistance[9] 	3.3563888609631
scalar abilene_cost_network.client[9] 	downloads[9] 	169099
scalar abilene_cost_network.client[9] 	avg_time[9] 	0.011677169866
scalar abilene_cost_network.client[9] 	interests_sent[9] 	179654
