version 2
run General-3-20140725-16:12:27-29486
attr D costprobprodcorr0.01
attr F nrr
attr R lru
attr a 1
attr configname General
attr csize 10
attr ctlg 100
attr datetime 20140725-16:12:27
attr experiment General
attr inifile omnetpp.ini
attr iterationvars "$net=abilene_cost, $rep=17, $priceratiovalue=100, $weights=0.333_0.333_0.334, $lambda=100, $a=1, $ctlg=100, $F=nrr, $ttl=10, $D=costprobprodcorr0.01, $xi=1, $R=lru, $csize=10, $pricebits=0, $window=60, $variance=0.05, $mytime=1800"
attr iterationvars2 "$net=abilene_cost, $rep=17, $priceratiovalue=100, $weights=0.333_0.333_0.334, $lambda=100, $a=1, $ctlg=100, $F=nrr, $ttl=10, $D=costprobprodcorr0.01, $xi=1, $R=lru, $csize=10, $pricebits=0, $window=60, $variance=0.05, $mytime=1800, $repetition=0"
attr lambda 100
attr measurement "$net=abilene_cost, $rep=17, $priceratiovalue=100, $weights=0.333_0.333_0.334, $lambda=100, $a=1, $ctlg=100, $F=nrr, $ttl=10, $D=costprobprodcorr0.01, $xi=1, $R=lru, $csize=10, $pricebits=0, $window=60, $variance=0.05, $mytime=1800"
attr mytime 1800
attr net abilene_cost
attr network networks.${net=abilene_cost}_network
attr pricebits 0
attr priceratiovalue 100
attr processid 29486
attr rep 17
attr repetition 0
attr replication #0
attr resultdir results
attr runnumber 3
attr seedset 17
attr ttl 10
attr variance 0.05
attr weights 0.333_0.333_0.334
attr window 60
attr xi 1

scalar . 	a 	1
scalar . 	csize 	10
scalar . 	ctlg 	100
scalar . 	lambda 	100
scalar . 	mytime 	1800
scalar . 	pricebits 	0
scalar . 	priceratiovalue 	100
scalar . 	rep 	17
scalar . 	ttl 	10
scalar . 	variance 	0.05
scalar . 	window 	60
scalar . 	xi 	1
scalar abilene_cost_network.content_distribution 	repo-0 	11
scalar abilene_cost_network.content_distribution 	repo-1 	12
scalar abilene_cost_network.content_distribution 	repo-2 	13
scalar abilene_cost_network.content_distribution 	client-0 	5
scalar abilene_cost_network.content_distribution 	client-1 	0
scalar abilene_cost_network.content_distribution 	client-2 	9
scalar abilene_cost_network.content_distribution 	repo-0_card 	20
scalar abilene_cost_network.content_distribution 	repo-1_card 	43
scalar abilene_cost_network.content_distribution 	repo-2_card 	37
scalar abilene_cost_network.statistics 	popularity_indication[0] 	1.6948328805326
scalar abilene_cost_network.statistics 	repo_popularity[0] 	0.32672248641425
scalar abilene_cost_network.statistics 	popularity_indication[1] 	1.5096692930134
scalar abilene_cost_network.statistics 	repo_popularity[1] 	0.29102745807101
scalar abilene_cost_network.statistics 	popularity_indication[2] 	1.9828753440937
scalar abilene_cost_network.statistics 	repo_popularity[2] 	0.38225005551474
scalar abilene_cost_network.statistics 	stabilization_time 	85.9
scalar abilene_cost_network.node[1].face$o[4].channel 	price[1] 	0
scalar abilene_cost_network.node[1].face$o[4].channel 	represented_price[1] 	0
scalar abilene_cost_network.node[7].face$o[4].channel 	price[7] 	0
scalar abilene_cost_network.node[7].face$o[4].channel 	represented_price[7] 	0
scalar abilene_cost_network.node[10].face$o[4].channel 	price[10] 	0
scalar abilene_cost_network.node[10].face$o[4].channel 	represented_price[10] 	0
scalar abilene_cost_network.node[11].face$o[1].channel 	price[11] 	0
scalar abilene_cost_network.node[11].face$o[1].channel 	represented_price[11] 	0
scalar abilene_cost_network.node[12].face$o[1].channel 	price[12] 	1
scalar abilene_cost_network.node[12].face$o[1].channel 	represented_price[12] 	1
scalar abilene_cost_network.node[13].face$o[1].channel 	price[13] 	100
scalar abilene_cost_network.node[13].face$o[1].channel 	represented_price[13] 	100
scalar abilene_cost_network.statistics 	p_hit 	0.060668585882664
scalar abilene_cost_network.statistics 	interests 	148026.71428571
scalar abilene_cost_network.statistics 	data 	109394.14285714
scalar abilene_cost_network.statistics 	hdistance 	3.8130134070299
scalar abilene_cost_network.statistics 	avg_time 	0.014838711162
scalar abilene_cost_network.statistics 	downloads 	501278
scalar abilene_cost_network.statistics 	total_cost 	18389346
scalar abilene_cost_network.statistics 	total_cost_other 	6324846
scalar abilene_cost_network.statistics 	total_replicas 	100
scalar abilene_cost_network.statistics 	inner_hit 	0.25136750465809
scalar abilene_cost_network.statistics 	interests_sent 	540855
scalar abilene_cost_network.node[0].core_layer 	interests[0] 	190223
scalar abilene_cost_network.node[0].core_layer 	data[0] 	163001
scalar abilene_cost_network.node[0].core_layer 	repo_int[0] 	375273
scalar abilene_cost_network.node[0].content_store 	p_hit[0] 	0.083617648759614
scalar abilene_cost_network.node[0].content_store 	hits[0] 	15906
scalar abilene_cost_network.node[0].content_store 	misses[0] 	174317
scalar abilene_cost_network.node[0].content_store 	decision_yes[0] 	702
scalar abilene_cost_network.node[0].content_store 	decision_no[0] 	162298
scalar abilene_cost_network.node[0].content_store 	decision_ratio[0] 	0.0043067484662577
scalar abilene_cost_network.node[0].content_store 	correction_factor[0] 	0.00029644561705155
scalar abilene_cost_network.node[0].content_store 	xi[0] 	1
scalar abilene_cost_network.node[1].core_layer 	interests[1] 	281121
scalar abilene_cost_network.node[1].core_layer 	data[1] 	266027
scalar abilene_cost_network.node[1].content_store 	p_hit[1] 	0.053695739556988
scalar abilene_cost_network.node[1].content_store 	hits[1] 	15095
scalar abilene_cost_network.node[1].content_store 	misses[1] 	266026
scalar abilene_cost_network.node[1].content_store 	decision_yes[1] 	481
scalar abilene_cost_network.node[1].content_store 	decision_no[1] 	265527
scalar abilene_cost_network.node[1].content_store 	decision_ratio[1] 	0.0018082162942468
scalar abilene_cost_network.node[1].content_store 	correction_factor[1] 	0.00029644561705155
scalar abilene_cost_network.node[1].content_store 	xi[1] 	1
scalar abilene_cost_network.node[2].core_layer 	interests[2] 	159208
scalar abilene_cost_network.node[2].core_layer 	data[2] 	145786
scalar abilene_cost_network.node[2].content_store 	p_hit[2] 	0.082904125420833
scalar abilene_cost_network.node[2].content_store 	hits[2] 	13199
scalar abilene_cost_network.node[2].content_store 	misses[2] 	146009
scalar abilene_cost_network.node[2].content_store 	decision_yes[2] 	525
scalar abilene_cost_network.node[2].content_store 	decision_no[2] 	145239
scalar abilene_cost_network.node[2].content_store 	decision_ratio[2] 	0.0036017123569606
scalar abilene_cost_network.node[2].content_store 	correction_factor[2] 	0.00029644561705155
scalar abilene_cost_network.node[2].content_store 	xi[2] 	1
scalar abilene_cost_network.node[3].core_layer 	interests[3] 	152883
scalar abilene_cost_network.node[3].core_layer 	data[3] 	139813
scalar abilene_cost_network.node[3].content_store 	p_hit[3] 	0.085477129569671
scalar abilene_cost_network.node[3].content_store 	hits[3] 	13068
scalar abilene_cost_network.node[3].content_store 	misses[3] 	139815
scalar abilene_cost_network.node[3].content_store 	decision_yes[3] 	483
scalar abilene_cost_network.node[3].content_store 	decision_no[3] 	139329
scalar abilene_cost_network.node[3].content_store 	decision_ratio[3] 	0.0034546390867737
scalar abilene_cost_network.node[3].content_store 	correction_factor[3] 	0.00029644561705155
scalar abilene_cost_network.node[3].content_store 	xi[3] 	1
scalar abilene_cost_network.node[4].core_layer 	interests[4] 	100249
scalar abilene_cost_network.node[4].core_layer 	data[4] 	96098
scalar abilene_cost_network.node[4].content_store 	p_hit[4] 	0.041396921665054
scalar abilene_cost_network.node[4].content_store 	hits[4] 	4150
scalar abilene_cost_network.node[4].content_store 	misses[4] 	96099
scalar abilene_cost_network.node[4].content_store 	decision_yes[4] 	478
scalar abilene_cost_network.node[4].content_store 	decision_no[4] 	95620
scalar abilene_cost_network.node[4].content_store 	decision_ratio[4] 	0.0049740889508627
scalar abilene_cost_network.node[4].content_store 	correction_factor[4] 	0.00029644561705155
scalar abilene_cost_network.node[4].content_store 	xi[4] 	1
scalar abilene_cost_network.node[5].core_layer 	interests[5] 	179714
scalar abilene_cost_network.node[5].core_layer 	data[5] 	158458
scalar abilene_cost_network.node[5].content_store 	p_hit[5] 	0.028589870572131
scalar abilene_cost_network.node[5].content_store 	hits[5] 	5138
scalar abilene_cost_network.node[5].content_store 	misses[5] 	174576
scalar abilene_cost_network.node[5].content_store 	decision_yes[5] 	464
scalar abilene_cost_network.node[5].content_store 	decision_no[5] 	157994
scalar abilene_cost_network.node[5].content_store 	decision_ratio[5] 	0.002928220727259
scalar abilene_cost_network.node[5].content_store 	correction_factor[5] 	0.00029644561705155
scalar abilene_cost_network.node[5].content_store 	xi[5] 	1
scalar abilene_cost_network.node[6].core_layer 	interests[6] 	63699
scalar abilene_cost_network.node[6].core_layer 	data[6] 	54288
scalar abilene_cost_network.node[6].content_store 	p_hit[6] 	0.14775742162357
scalar abilene_cost_network.node[6].content_store 	hits[6] 	9412
scalar abilene_cost_network.node[6].content_store 	misses[6] 	54287
scalar abilene_cost_network.node[6].content_store 	decision_yes[6] 	15
scalar abilene_cost_network.node[6].content_store 	decision_no[6] 	54273
scalar abilene_cost_network.node[6].content_store 	decision_ratio[6] 	0.0002763041556145
scalar abilene_cost_network.node[6].content_store 	correction_factor[6] 	0.00029644561705155
scalar abilene_cost_network.node[6].content_store 	xi[6] 	1
scalar abilene_cost_network.node[7].core_layer 	interests[7] 	152563
scalar abilene_cost_network.node[7].core_layer 	data[7] 	142800
scalar abilene_cost_network.node[7].content_store 	p_hit[7] 	0.06364583811278
scalar abilene_cost_network.node[7].content_store 	hits[7] 	9710
scalar abilene_cost_network.node[7].content_store 	misses[7] 	142853
scalar abilene_cost_network.node[7].content_store 	decision_yes[7] 	42
scalar abilene_cost_network.node[7].content_store 	decision_no[7] 	142757
scalar abilene_cost_network.node[7].content_store 	decision_ratio[7] 	0.00029411970672064
scalar abilene_cost_network.node[7].content_store 	correction_factor[7] 	0.00029644561705155
scalar abilene_cost_network.node[7].content_store 	xi[7] 	1
scalar abilene_cost_network.node[8].core_layer 	interests[8] 	69025
scalar abilene_cost_network.node[8].core_layer 	data[8] 	63007
scalar abilene_cost_network.node[8].content_store 	p_hit[8] 	0.087171314741036
scalar abilene_cost_network.node[8].content_store 	hits[8] 	6017
scalar abilene_cost_network.node[8].content_store 	misses[8] 	63008
scalar abilene_cost_network.node[8].content_store 	decision_yes[8] 	20
scalar abilene_cost_network.node[8].content_store 	decision_no[8] 	62986
scalar abilene_cost_network.node[8].content_store 	decision_ratio[8] 	0.00031743008602355
scalar abilene_cost_network.node[8].content_store 	correction_factor[8] 	0.00029644561705155
scalar abilene_cost_network.node[8].content_store 	xi[8] 	1
scalar abilene_cost_network.node[9].core_layer 	interests[9] 	191264
scalar abilene_cost_network.node[9].core_layer 	data[9] 	161641
scalar abilene_cost_network.node[9].content_store 	p_hit[9] 	0.091392002676928
scalar abilene_cost_network.node[9].content_store 	hits[9] 	17480
scalar abilene_cost_network.node[9].content_store 	misses[9] 	173784
scalar abilene_cost_network.node[9].content_store 	decision_yes[9] 	689
scalar abilene_cost_network.node[9].content_store 	decision_no[9] 	160949
scalar abilene_cost_network.node[9].content_store 	decision_ratio[9] 	0.0042626115146191
scalar abilene_cost_network.node[9].content_store 	correction_factor[9] 	0.00029644561705155
scalar abilene_cost_network.node[9].content_store 	xi[9] 	1
scalar abilene_cost_network.node[10].core_layer 	interests[10] 	157152
scalar abilene_cost_network.node[10].core_layer 	data[10] 	140599
scalar abilene_cost_network.node[10].content_store 	p_hit[10] 	0.10533114436978
scalar abilene_cost_network.node[10].content_store 	hits[10] 	16553
scalar abilene_cost_network.node[10].content_store 	misses[10] 	140599
scalar abilene_cost_network.node[10].content_store 	decision_yes[10] 	1880
scalar abilene_cost_network.node[10].content_store 	decision_no[10] 	138691
scalar abilene_cost_network.node[10].content_store 	decision_ratio[10] 	0.013374024514302
scalar abilene_cost_network.node[10].content_store 	correction_factor[10] 	0.00029644561705155
scalar abilene_cost_network.node[10].content_store 	xi[10] 	1
scalar abilene_cost_network.node[11].core_layer 	interests[11] 	61941
scalar abilene_cost_network.node[11].core_layer 	repo_load[11] 	61941
scalar abilene_cost_network.node[11].core_layer 	data[11] 	0
scalar abilene_cost_network.node[11].content_store 	p_hit[11] 	0
scalar abilene_cost_network.node[11].content_store 	hits[11] 	0
scalar abilene_cost_network.node[11].content_store 	misses[11] 	61941
scalar abilene_cost_network.node[11].content_store 	decision_yes[11] 	0
scalar abilene_cost_network.node[11].content_store 	decision_no[11] 	61941
scalar abilene_cost_network.node[11].content_store 	decision_ratio[11] 	0
scalar abilene_cost_network.node[12].core_layer 	interests[12] 	130746
scalar abilene_cost_network.node[12].core_layer 	repo_load[12] 	130746
scalar abilene_cost_network.node[12].core_layer 	data[12] 	0
scalar abilene_cost_network.node[12].content_store 	p_hit[12] 	0
scalar abilene_cost_network.node[12].content_store 	hits[12] 	0
scalar abilene_cost_network.node[12].content_store 	misses[12] 	130746
scalar abilene_cost_network.node[12].content_store 	decision_yes[12] 	0
scalar abilene_cost_network.node[12].content_store 	decision_no[12] 	130746
scalar abilene_cost_network.node[12].content_store 	decision_ratio[12] 	0
scalar abilene_cost_network.node[13].core_layer 	interests[13] 	182586
scalar abilene_cost_network.node[13].core_layer 	repo_load[13] 	182586
scalar abilene_cost_network.node[13].core_layer 	data[13] 	0
scalar abilene_cost_network.node[13].content_store 	p_hit[13] 	0
scalar abilene_cost_network.node[13].content_store 	hits[13] 	0
scalar abilene_cost_network.node[13].content_store 	misses[13] 	182586
scalar abilene_cost_network.node[13].content_store 	decision_yes[13] 	0
scalar abilene_cost_network.node[13].content_store 	decision_no[13] 	182586
scalar abilene_cost_network.node[13].content_store 	decision_ratio[13] 	0
scalar abilene_cost_network.client[0] 	hdistance[0] 	3.4977384382824
scalar abilene_cost_network.client[0] 	downloads[0] 	169352
scalar abilene_cost_network.client[0] 	avg_time[0] 	0.014556011761
scalar abilene_cost_network.client[0] 	interests_sent[0] 	180668
scalar abilene_cost_network.client[5] 	hdistance[5] 	4.6459458632819
scalar abilene_cost_network.client[5] 	downloads[5] 	163475
scalar abilene_cost_network.client[5] 	avg_time[5] 	0.016038976945
scalar abilene_cost_network.client[5] 	interests_sent[5] 	179593
scalar abilene_cost_network.client[9] 	hdistance[9] 	3.2953559195256
scalar abilene_cost_network.client[9] 	downloads[9] 	168451
scalar abilene_cost_network.client[9] 	avg_time[9] 	0.013921144782
scalar abilene_cost_network.client[9] 	interests_sent[9] 	180594
