version 2
run General-2-20140724-00:59:45-3893
attr D costprobprodcorr0.01
attr F nrr
attr R lru
attr a 1
attr configname General
attr csize 10
attr ctlg 100
attr datetime 20140724-00:59:45
attr experiment General
attr inifile omnetpp.ini
attr iterationvars "$net=abilene_cost, $rep=16, $priceratiovalue=100, $weights=0.333_0.333_0.334, $lambda=100, $a=1, $ctlg=100, $F=nrr, $ttl=10, $D=costprobprodcorr0.01, $xi=1, $R=lru, $csize=10, $pricebits=0, $window=60, $variance=0.05, $mytime=1800"
attr iterationvars2 "$net=abilene_cost, $rep=16, $priceratiovalue=100, $weights=0.333_0.333_0.334, $lambda=100, $a=1, $ctlg=100, $F=nrr, $ttl=10, $D=costprobprodcorr0.01, $xi=1, $R=lru, $csize=10, $pricebits=0, $window=60, $variance=0.05, $mytime=1800, $repetition=0"
attr lambda 100
attr measurement "$net=abilene_cost, $rep=16, $priceratiovalue=100, $weights=0.333_0.333_0.334, $lambda=100, $a=1, $ctlg=100, $F=nrr, $ttl=10, $D=costprobprodcorr0.01, $xi=1, $R=lru, $csize=10, $pricebits=0, $window=60, $variance=0.05, $mytime=1800"
attr mytime 1800
attr net abilene_cost
attr network networks.${net=abilene_cost}_network
attr pricebits 0
attr priceratiovalue 100
attr processid 3893
attr rep 16
attr repetition 0
attr replication #0
attr resultdir results
attr runnumber 2
attr seedset 16
attr ttl 10
attr variance 0.05
attr weights 0.333_0.333_0.334
attr window 60
attr xi 1

scalar . 	a 	1
scalar . 	csize 	10
scalar . 	ctlg 	100
scalar . 	lambda 	100
scalar . 	mytime 	1800
scalar . 	pricebits 	0
scalar . 	priceratiovalue 	100
scalar . 	rep 	16
scalar . 	ttl 	10
scalar . 	variance 	0.05
scalar . 	window 	60
scalar . 	xi 	1
scalar abilene_cost_network.content_distribution 	repo-0 	11
scalar abilene_cost_network.content_distribution 	repo-1 	12
scalar abilene_cost_network.content_distribution 	repo-2 	13
scalar abilene_cost_network.content_distribution 	client-0 	5
scalar abilene_cost_network.content_distribution 	client-1 	0
scalar abilene_cost_network.content_distribution 	client-2 	9
scalar abilene_cost_network.content_distribution 	repo-0_card 	30
scalar abilene_cost_network.content_distribution 	repo-1_card 	27
scalar abilene_cost_network.content_distribution 	repo-2_card 	43
scalar abilene_cost_network.statistics 	popularity_indication[0] 	1.5385691716807
scalar abilene_cost_network.statistics 	repo_popularity[0] 	0.29659865056067
scalar abilene_cost_network.statistics 	popularity_indication[1] 	1.6841507736452
scalar abilene_cost_network.statistics 	repo_popularity[1] 	0.32466323646549
scalar abilene_cost_network.statistics 	popularity_indication[2] 	1.9646575723138
scalar abilene_cost_network.statistics 	repo_popularity[2] 	0.37873811297384
