version 2
run General-7515-20140425-11:25:09-8471
attr D fix0.0001
attr F nrr
attr R lru
attr a 1.2
attr configname General
attr csize 9
attr ctlg 10^3
attr datetime 20140425-11:25:09
attr experiment General
attr inifile omnetpp.ini
attr iterationvars "$net=one_cache_scenario, $rep=18, $priceratiovalue=9, $a=1.2, $ctlg=10^3, $F=nrr, $ttl=1000, $D=fix0.0001, $R=lru, $csize=9"
attr iterationvars2 "$net=one_cache_scenario, $rep=18, $priceratiovalue=9, $a=1.2, $ctlg=10^3, $F=nrr, $ttl=1000, $D=fix0.0001, $R=lru, $csize=9, $repetition=0"
attr measurement "$net=one_cache_scenario, $rep=18, $priceratiovalue=9, $a=1.2, $ctlg=10^3, $F=nrr, $ttl=1000, $D=fix0.0001, $R=lru, $csize=9"
attr net one_cache_scenario
attr network networks.${net=one_cache_scenario}_network
attr priceratiovalue 9
attr processid 8471
attr rep 18
attr repetition 0
attr replication #0
attr resultdir results
attr runnumber 7515
attr seedset 18
attr ttl 1000

scalar . 	a 	1.2
scalar . 	csize 	9
scalar . 	priceratiovalue 	9
scalar . 	rep 	18
scalar . 	ttl 	1000
scalar one_cache_scenario_network.content_distribution 	repo-0 	3
scalar one_cache_scenario_network.content_distribution 	repo-1 	4
scalar one_cache_scenario_network.content_distribution 	client-0 	0
scalar one_cache_scenario_network.content_distribution 	repo-0_card 	500
scalar one_cache_scenario_network.content_distribution 	repo-1_card 	500
scalar one_cache_scenario_network.statistics 	p_hit 	0.18818541809863
scalar one_cache_scenario_network.statistics 	interests 	77981.6
scalar one_cache_scenario_network.statistics 	data 	42204.4
scalar one_cache_scenario_network.statistics 	hdistance 	1.1796451371265
scalar one_cache_scenario_network.statistics 	avg_time 	0
scalar one_cache_scenario_network.statistics 	downloads 	178886
scalar one_cache_scenario_network.statistics 	total_cost 	47839
scalar one_cache_scenario_network.statistics 	interests_sent 	178886
scalar one_cache_scenario_network.node[0].core_layer 	interests[0] 	178886
scalar one_cache_scenario_network.node[0].core_layer 	data[0] 	105511
scalar one_cache_scenario_network.node[0].core_layer 	repo_int[0] 	105511
scalar one_cache_scenario_network.node[0].content_store 	p_hit[0] 	0.41017743143678
scalar one_cache_scenario_network.node[0].content_store 	hits[0] 	73375
scalar one_cache_scenario_network.node[0].content_store 	misses[0] 	105511
scalar one_cache_scenario_network.node[0].content_store 	decision_yes[0] 	9
scalar one_cache_scenario_network.node[0].content_store 	decision_no[0] 	105502
scalar one_cache_scenario_network.node[1].core_layer 	interests[1] 	58900
scalar one_cache_scenario_network.node[1].core_layer 	data[1] 	58900
scalar one_cache_scenario_network.node[1].content_store 	p_hit[1] 	0
scalar one_cache_scenario_network.node[1].content_store 	hits[1] 	0
scalar one_cache_scenario_network.node[1].content_store 	misses[1] 	58900
scalar one_cache_scenario_network.node[1].content_store 	decision_yes[1] 	0
scalar one_cache_scenario_network.node[1].content_store 	decision_no[1] 	58900
scalar one_cache_scenario_network.node[2].core_layer 	interests[2] 	46611
scalar one_cache_scenario_network.node[2].core_layer 	data[2] 	46611
scalar one_cache_scenario_network.node[2].content_store 	p_hit[2] 	0
scalar one_cache_scenario_network.node[2].content_store 	hits[2] 	0
scalar one_cache_scenario_network.node[2].content_store 	misses[2] 	46611
scalar one_cache_scenario_network.node[2].content_store 	decision_yes[2] 	0
scalar one_cache_scenario_network.node[2].content_store 	decision_no[2] 	46611
scalar one_cache_scenario_network.node[3].core_layer 	interests[3] 	58900
scalar one_cache_scenario_network.node[3].core_layer 	repo_load[3] 	58900
scalar one_cache_scenario_network.node[3].core_layer 	data[3] 	0
scalar one_cache_scenario_network.node[3].content_store 	p_hit[3] 	0
scalar one_cache_scenario_network.node[3].content_store 	hits[3] 	0
scalar one_cache_scenario_network.node[3].content_store 	misses[3] 	58900
scalar one_cache_scenario_network.node[3].content_store 	decision_yes[3] 	0
scalar one_cache_scenario_network.node[3].content_store 	decision_no[3] 	58900
scalar one_cache_scenario_network.node[4].core_layer 	interests[4] 	46611
scalar one_cache_scenario_network.node[4].core_layer 	repo_load[4] 	46611
scalar one_cache_scenario_network.node[4].core_layer 	data[4] 	0
scalar one_cache_scenario_network.node[4].content_store 	p_hit[4] 	0
scalar one_cache_scenario_network.node[4].content_store 	hits[4] 	0
scalar one_cache_scenario_network.node[4].content_store 	misses[4] 	46611
scalar one_cache_scenario_network.node[4].content_store 	decision_yes[4] 	0
scalar one_cache_scenario_network.node[4].content_store 	decision_no[4] 	46611
scalar one_cache_scenario_network.client[0] 	hdistance[0] 	1.1796451371265
scalar one_cache_scenario_network.client[0] 	downloads[0] 	178886
scalar one_cache_scenario_network.client[0] 	avg_time[0] 	0
scalar one_cache_scenario_network.client[0] 	interests_sent[0] 	178886
