version 2
run General-2805-20140502-06:30:01-11772
attr D fix0.001
attr F nrr
attr R lru
attr a 1.2
attr configname General
attr csize 1e3
attr ctlg 1e5
attr datetime 20140502-06:30:01
attr experiment General
attr inifile omnetpp.ini
attr iterationvars "$net=three_caches_scenario_3_links, $rep=5, $priceratiovalue=10, $weights=0.2_0.4_0.4, $a=1.2, $ctlg=1e5, $F=nrr, $ttl=1000, $D=fix0.001, $xi=1, $R=lru, $csize=1e3"
attr iterationvars2 "$net=three_caches_scenario_3_links, $rep=5, $priceratiovalue=10, $weights=0.2_0.4_0.4, $a=1.2, $ctlg=1e5, $F=nrr, $ttl=1000, $D=fix0.001, $xi=1, $R=lru, $csize=1e3, $repetition=0"
attr measurement "$net=three_caches_scenario_3_links, $rep=5, $priceratiovalue=10, $weights=0.2_0.4_0.4, $a=1.2, $ctlg=1e5, $F=nrr, $ttl=1000, $D=fix0.001, $xi=1, $R=lru, $csize=1e3"
attr net three_caches_scenario_3_links
attr network networks.${net=three_caches_scenario_3_links}_network
attr priceratiovalue 10
attr processid 11772
attr rep 5
attr repetition 0
attr replication #0
attr resultdir results
attr runnumber 2805
attr seedset 5
attr ttl 1000
attr weights 0.2_0.4_0.4
attr xi 1

scalar . 	a 	1.2
scalar . 	csize 	1e3
scalar . 	ctlg 	1e5
scalar . 	priceratiovalue 	10
scalar . 	rep 	5
scalar . 	ttl 	1000
scalar . 	xi 	1
scalar three_caches_scenario_3_links_network.content_distribution 	repo-0 	4
scalar three_caches_scenario_3_links_network.content_distribution 	repo-1 	5
scalar three_caches_scenario_3_links_network.content_distribution 	repo-2 	6
scalar three_caches_scenario_3_links_network.content_distribution 	client-0 	0
scalar three_caches_scenario_3_links_network.content_distribution 	repo-0_card 	19937
scalar three_caches_scenario_3_links_network.content_distribution 	repo-1_card 	40032
scalar three_caches_scenario_3_links_network.content_distribution 	repo-2_card 	40031
scalar three_caches_scenario_3_links_network.statistics 	p_hit 	0.57241575609988
scalar three_caches_scenario_3_links_network.statistics 	interests 	36136.571428571
scalar three_caches_scenario_3_links_network.statistics 	data 	10528.142857143
scalar three_caches_scenario_3_links_network.statistics 	hdistance 	0.56105411722703
scalar three_caches_scenario_3_links_network.statistics 	avg_time 	0
scalar three_caches_scenario_3_links_network.statistics 	downloads 	179259
scalar three_caches_scenario_3_links_network.statistics 	total_cost 	146181
scalar three_caches_scenario_3_links_network.statistics 	total_replicas 	100000
scalar three_caches_scenario_3_links_network.statistics 	interests_sent 	179259
scalar three_caches_scenario_3_links_network.node[0].core_layer 	interests[0] 	179259
scalar three_caches_scenario_3_links_network.node[0].core_layer 	data[0] 	39234
scalar three_caches_scenario_3_links_network.node[0].core_layer 	repo_int[0] 	34463
scalar three_caches_scenario_3_links_network.node[0].content_store 	p_hit[0] 	0.78113232808395
scalar three_caches_scenario_3_links_network.node[0].content_store 	hits[0] 	140025
scalar three_caches_scenario_3_links_network.node[0].content_store 	misses[0] 	39234
scalar three_caches_scenario_3_links_network.node[0].content_store 	decision_yes[0] 	33
scalar three_caches_scenario_3_links_network.node[0].content_store 	decision_no[0] 	39201
scalar three_caches_scenario_3_links_network.node[1].core_layer 	interests[1] 	7586
scalar three_caches_scenario_3_links_network.node[1].core_layer 	data[1] 	7586
scalar three_caches_scenario_3_links_network.node[1].content_store 	p_hit[1] 	0
scalar three_caches_scenario_3_links_network.node[1].content_store 	hits[1] 	0
scalar three_caches_scenario_3_links_network.node[1].content_store 	misses[1] 	7586
scalar three_caches_scenario_3_links_network.node[1].content_store 	decision_yes[1] 	0
scalar three_caches_scenario_3_links_network.node[1].content_store 	decision_no[1] 	7586
scalar three_caches_scenario_3_links_network.node[2].core_layer 	interests[2] 	16142
scalar three_caches_scenario_3_links_network.node[2].core_layer 	data[2] 	13621
scalar three_caches_scenario_3_links_network.node[2].content_store 	p_hit[2] 	0.15617643414695
scalar three_caches_scenario_3_links_network.node[2].content_store 	hits[2] 	2521
scalar three_caches_scenario_3_links_network.node[2].content_store 	misses[2] 	13621
scalar three_caches_scenario_3_links_network.node[2].content_store 	decision_yes[2] 	14
scalar three_caches_scenario_3_links_network.node[2].content_store 	decision_no[2] 	13607
scalar three_caches_scenario_3_links_network.node[3].core_layer 	interests[3] 	15506
scalar three_caches_scenario_3_links_network.node[3].core_layer 	data[3] 	13256
scalar three_caches_scenario_3_links_network.node[3].content_store 	p_hit[3] 	0.14510512059848
scalar three_caches_scenario_3_links_network.node[3].content_store 	hits[3] 	2250
scalar three_caches_scenario_3_links_network.node[3].content_store 	misses[3] 	13256
scalar three_caches_scenario_3_links_network.node[3].content_store 	decision_yes[3] 	18
scalar three_caches_scenario_3_links_network.node[3].content_store 	decision_no[3] 	13238
scalar three_caches_scenario_3_links_network.node[4].core_layer 	interests[4] 	7586
scalar three_caches_scenario_3_links_network.node[4].core_layer 	repo_load[4] 	7586
scalar three_caches_scenario_3_links_network.node[4].core_layer 	data[4] 	0
scalar three_caches_scenario_3_links_network.node[4].content_store 	p_hit[4] 	0
scalar three_caches_scenario_3_links_network.node[4].content_store 	hits[4] 	0
scalar three_caches_scenario_3_links_network.node[4].content_store 	misses[4] 	7586
scalar three_caches_scenario_3_links_network.node[4].content_store 	decision_yes[4] 	0
scalar three_caches_scenario_3_links_network.node[4].content_store 	decision_no[4] 	7586
scalar three_caches_scenario_3_links_network.node[5].core_layer 	interests[5] 	13621
scalar three_caches_scenario_3_links_network.node[5].core_layer 	repo_load[5] 	13621
scalar three_caches_scenario_3_links_network.node[5].core_layer 	data[5] 	0
scalar three_caches_scenario_3_links_network.node[5].content_store 	p_hit[5] 	0
scalar three_caches_scenario_3_links_network.node[5].content_store 	hits[5] 	0
scalar three_caches_scenario_3_links_network.node[5].content_store 	misses[5] 	13621
scalar three_caches_scenario_3_links_network.node[5].content_store 	decision_yes[5] 	0
scalar three_caches_scenario_3_links_network.node[5].content_store 	decision_no[5] 	13621
scalar three_caches_scenario_3_links_network.node[6].core_layer 	interests[6] 	13256
scalar three_caches_scenario_3_links_network.node[6].core_layer 	repo_load[6] 	13256
scalar three_caches_scenario_3_links_network.node[6].core_layer 	data[6] 	0
scalar three_caches_scenario_3_links_network.node[6].content_store 	p_hit[6] 	0
scalar three_caches_scenario_3_links_network.node[6].content_store 	hits[6] 	0
scalar three_caches_scenario_3_links_network.node[6].content_store 	misses[6] 	13256
scalar three_caches_scenario_3_links_network.node[6].content_store 	decision_yes[6] 	0
scalar three_caches_scenario_3_links_network.node[6].content_store 	decision_no[6] 	13256
scalar three_caches_scenario_3_links_network.client[0] 	hdistance[0] 	0.56105411722703
scalar three_caches_scenario_3_links_network.client[0] 	downloads[0] 	179259
scalar three_caches_scenario_3_links_network.client[0] 	avg_time[0] 	0
scalar three_caches_scenario_3_links_network.client[0] 	interests_sent[0] 	179259
