version 2
run General-501-20140502-02:02:24-9388
attr D fix0.001
attr F nrr
attr R lru
attr a 1.2
attr configname General
attr csize 1e3
attr ctlg 1e5
attr datetime 20140502-02:02:24
attr experiment General
attr inifile omnetpp.ini
attr iterationvars "$net=three_caches_scenario_3_links, $rep=1, $priceratiovalue=10, $weights=0.2_0.4_0.4, $a=1.2, $ctlg=1e5, $F=nrr, $ttl=1000, $D=fix0.001, $xi=1, $R=lru, $csize=1e3"
attr iterationvars2 "$net=three_caches_scenario_3_links, $rep=1, $priceratiovalue=10, $weights=0.2_0.4_0.4, $a=1.2, $ctlg=1e5, $F=nrr, $ttl=1000, $D=fix0.001, $xi=1, $R=lru, $csize=1e3, $repetition=0"
attr measurement "$net=three_caches_scenario_3_links, $rep=1, $priceratiovalue=10, $weights=0.2_0.4_0.4, $a=1.2, $ctlg=1e5, $F=nrr, $ttl=1000, $D=fix0.001, $xi=1, $R=lru, $csize=1e3"
attr net three_caches_scenario_3_links
attr network networks.${net=three_caches_scenario_3_links}_network
attr priceratiovalue 10
attr processid 9388
attr rep 1
attr repetition 0
attr replication #0
attr resultdir results
attr runnumber 501
attr seedset 1
attr ttl 1000
attr weights 0.2_0.4_0.4
attr xi 1

scalar . 	a 	1.2
scalar . 	csize 	1e3
scalar . 	ctlg 	1e5
scalar . 	priceratiovalue 	10
scalar . 	rep 	1
scalar . 	ttl 	1000
scalar . 	xi 	1
scalar three_caches_scenario_3_links_network.content_distribution 	repo-0 	4
scalar three_caches_scenario_3_links_network.content_distribution 	repo-1 	5
scalar three_caches_scenario_3_links_network.content_distribution 	repo-2 	6
scalar three_caches_scenario_3_links_network.content_distribution 	client-0 	0
scalar three_caches_scenario_3_links_network.content_distribution 	repo-0_card 	19939
scalar three_caches_scenario_3_links_network.content_distribution 	repo-1_card 	40008
scalar three_caches_scenario_3_links_network.content_distribution 	repo-2_card 	40053
scalar three_caches_scenario_3_links_network.statistics 	p_hit 	0.5682842872041
scalar three_caches_scenario_3_links_network.statistics 	interests 	36438
scalar three_caches_scenario_3_links_network.statistics 	data 	10736.142857143
scalar three_caches_scenario_3_links_network.statistics 	hdistance 	0.56739646384642
scalar three_caches_scenario_3_links_network.statistics 	avg_time 	0
scalar three_caches_scenario_3_links_network.statistics 	downloads 	179913
scalar three_caches_scenario_3_links_network.statistics 	total_cost 	147979
scalar three_caches_scenario_3_links_network.statistics 	total_replicas 	100000
scalar three_caches_scenario_3_links_network.statistics 	interests_sent 	179913
scalar three_caches_scenario_3_links_network.node[0].core_layer 	interests[0] 	179913
scalar three_caches_scenario_3_links_network.node[0].core_layer 	data[0] 	40190
scalar three_caches_scenario_3_links_network.node[0].core_layer 	repo_int[0] 	34963
scalar three_caches_scenario_3_links_network.node[0].content_store 	p_hit[0] 	0.77661425244424
scalar three_caches_scenario_3_links_network.node[0].content_store 	hits[0] 	139723
scalar three_caches_scenario_3_links_network.node[0].content_store 	misses[0] 	40190
scalar three_caches_scenario_3_links_network.node[0].content_store 	decision_yes[0] 	48
scalar three_caches_scenario_3_links_network.node[0].content_store 	decision_no[0] 	40142
scalar three_caches_scenario_3_links_network.node[1].core_layer 	interests[1] 	8034
scalar three_caches_scenario_3_links_network.node[1].core_layer 	data[1] 	8034
scalar three_caches_scenario_3_links_network.node[1].content_store 	p_hit[1] 	0
scalar three_caches_scenario_3_links_network.node[1].content_store 	hits[1] 	0
scalar three_caches_scenario_3_links_network.node[1].content_store 	misses[1] 	8034
scalar three_caches_scenario_3_links_network.node[1].content_store 	decision_yes[1] 	0
scalar three_caches_scenario_3_links_network.node[1].content_store 	decision_no[1] 	8034
scalar three_caches_scenario_3_links_network.node[2].core_layer 	interests[2] 	16210
scalar three_caches_scenario_3_links_network.node[2].core_layer 	data[2] 	13479
scalar three_caches_scenario_3_links_network.node[2].content_store 	p_hit[2] 	0.16847624922887
scalar three_caches_scenario_3_links_network.node[2].content_store 	hits[2] 	2731
scalar three_caches_scenario_3_links_network.node[2].content_store 	misses[2] 	13479
scalar three_caches_scenario_3_links_network.node[2].content_store 	decision_yes[2] 	11
scalar three_caches_scenario_3_links_network.node[2].content_store 	decision_no[2] 	13468
scalar three_caches_scenario_3_links_network.node[3].core_layer 	interests[3] 	15946
scalar three_caches_scenario_3_links_network.node[3].core_layer 	data[3] 	13450
scalar three_caches_scenario_3_links_network.node[3].content_store 	p_hit[3] 	0.15652828295497
scalar three_caches_scenario_3_links_network.node[3].content_store 	hits[3] 	2496
scalar three_caches_scenario_3_links_network.node[3].content_store 	misses[3] 	13450
scalar three_caches_scenario_3_links_network.node[3].content_store 	decision_yes[3] 	17
scalar three_caches_scenario_3_links_network.node[3].content_store 	decision_no[3] 	13433
scalar three_caches_scenario_3_links_network.node[4].core_layer 	interests[4] 	8034
scalar three_caches_scenario_3_links_network.node[4].core_layer 	repo_load[4] 	8034
scalar three_caches_scenario_3_links_network.node[4].core_layer 	data[4] 	0
scalar three_caches_scenario_3_links_network.node[4].content_store 	p_hit[4] 	0
scalar three_caches_scenario_3_links_network.node[4].content_store 	hits[4] 	0
scalar three_caches_scenario_3_links_network.node[4].content_store 	misses[4] 	8034
scalar three_caches_scenario_3_links_network.node[4].content_store 	decision_yes[4] 	0
scalar three_caches_scenario_3_links_network.node[4].content_store 	decision_no[4] 	8034
scalar three_caches_scenario_3_links_network.node[5].core_layer 	interests[5] 	13479
scalar three_caches_scenario_3_links_network.node[5].core_layer 	repo_load[5] 	13479
scalar three_caches_scenario_3_links_network.node[5].core_layer 	data[5] 	0
scalar three_caches_scenario_3_links_network.node[5].content_store 	p_hit[5] 	0
scalar three_caches_scenario_3_links_network.node[5].content_store 	hits[5] 	0
scalar three_caches_scenario_3_links_network.node[5].content_store 	misses[5] 	13479
scalar three_caches_scenario_3_links_network.node[5].content_store 	decision_yes[5] 	0
scalar three_caches_scenario_3_links_network.node[5].content_store 	decision_no[5] 	13479
scalar three_caches_scenario_3_links_network.node[6].core_layer 	interests[6] 	13450
scalar three_caches_scenario_3_links_network.node[6].core_layer 	repo_load[6] 	13450
scalar three_caches_scenario_3_links_network.node[6].core_layer 	data[6] 	0
scalar three_caches_scenario_3_links_network.node[6].content_store 	p_hit[6] 	0
scalar three_caches_scenario_3_links_network.node[6].content_store 	hits[6] 	0
scalar three_caches_scenario_3_links_network.node[6].content_store 	misses[6] 	13450
scalar three_caches_scenario_3_links_network.node[6].content_store 	decision_yes[6] 	0
scalar three_caches_scenario_3_links_network.node[6].content_store 	decision_no[6] 	13450
scalar three_caches_scenario_3_links_network.client[0] 	hdistance[0] 	0.56739646384642
scalar three_caches_scenario_3_links_network.client[0] 	downloads[0] 	179913
scalar three_caches_scenario_3_links_network.client[0] 	avg_time[0] 	0
scalar three_caches_scenario_3_links_network.client[0] 	interests_sent[0] 	179913
