version 2
run General-2229-20140502-05:22:07-11174
attr D fix0.001
attr F nrr
attr R lru
attr a 1.2
attr configname General
attr csize 1e3
attr ctlg 1e5
attr datetime 20140502-05:22:07
attr experiment General
attr inifile omnetpp.ini
attr iterationvars "$net=three_caches_scenario_3_links, $rep=4, $priceratiovalue=10, $weights=0.2_0.4_0.4, $a=1.2, $ctlg=1e5, $F=nrr, $ttl=1000, $D=fix0.001, $xi=1, $R=lru, $csize=1e3"
attr iterationvars2 "$net=three_caches_scenario_3_links, $rep=4, $priceratiovalue=10, $weights=0.2_0.4_0.4, $a=1.2, $ctlg=1e5, $F=nrr, $ttl=1000, $D=fix0.001, $xi=1, $R=lru, $csize=1e3, $repetition=0"
attr measurement "$net=three_caches_scenario_3_links, $rep=4, $priceratiovalue=10, $weights=0.2_0.4_0.4, $a=1.2, $ctlg=1e5, $F=nrr, $ttl=1000, $D=fix0.001, $xi=1, $R=lru, $csize=1e3"
attr net three_caches_scenario_3_links
attr network networks.${net=three_caches_scenario_3_links}_network
attr priceratiovalue 10
attr processid 11174
attr rep 4
attr repetition 0
attr replication #0
attr resultdir results
attr runnumber 2229
attr seedset 4
attr ttl 1000
attr weights 0.2_0.4_0.4
attr xi 1

scalar . 	a 	1.2
scalar . 	csize 	1e3
scalar . 	ctlg 	1e5
scalar . 	priceratiovalue 	10
scalar . 	rep 	4
scalar . 	ttl 	1000
scalar . 	xi 	1
scalar three_caches_scenario_3_links_network.content_distribution 	repo-0 	4
scalar three_caches_scenario_3_links_network.content_distribution 	repo-1 	5
scalar three_caches_scenario_3_links_network.content_distribution 	repo-2 	6
scalar three_caches_scenario_3_links_network.content_distribution 	client-0 	0
scalar three_caches_scenario_3_links_network.content_distribution 	repo-0_card 	20142
scalar three_caches_scenario_3_links_network.content_distribution 	repo-1_card 	39937
scalar three_caches_scenario_3_links_network.content_distribution 	repo-2_card 	39921
scalar three_caches_scenario_3_links_network.statistics 	p_hit 	0.56944985346472
scalar three_caches_scenario_3_links_network.statistics 	interests 	36315
scalar three_caches_scenario_3_links_network.statistics 	data 	10659.428571429
scalar three_caches_scenario_3_links_network.statistics 	hdistance 	0.56514597219206
scalar three_caches_scenario_3_links_network.statistics 	avg_time 	0
scalar three_caches_scenario_3_links_network.statistics 	downloads 	179589
scalar three_caches_scenario_3_links_network.statistics 	total_cost 	149764
scalar three_caches_scenario_3_links_network.statistics 	total_replicas 	100000
scalar three_caches_scenario_3_links_network.statistics 	interests_sent 	179589
scalar three_caches_scenario_3_links_network.node[0].core_layer 	interests[0] 	179589
scalar three_caches_scenario_3_links_network.node[0].core_layer 	data[0] 	39784
scalar three_caches_scenario_3_links_network.node[0].core_layer 	repo_int[0] 	34832
scalar three_caches_scenario_3_links_network.node[0].content_store 	p_hit[0] 	0.7784719554093
scalar three_caches_scenario_3_links_network.node[0].content_store 	hits[0] 	139805
scalar three_caches_scenario_3_links_network.node[0].content_store 	misses[0] 	39784
scalar three_caches_scenario_3_links_network.node[0].content_store 	decision_yes[0] 	32
scalar three_caches_scenario_3_links_network.node[0].content_store 	decision_no[0] 	39752
scalar three_caches_scenario_3_links_network.node[1].core_layer 	interests[1] 	7954
scalar three_caches_scenario_3_links_network.node[1].core_layer 	data[1] 	7954
scalar three_caches_scenario_3_links_network.node[1].content_store 	p_hit[1] 	0
scalar three_caches_scenario_3_links_network.node[1].content_store 	hits[1] 	0
scalar three_caches_scenario_3_links_network.node[1].content_store 	misses[1] 	7954
scalar three_caches_scenario_3_links_network.node[1].content_store 	decision_yes[1] 	0
scalar three_caches_scenario_3_links_network.node[1].content_store 	decision_no[1] 	7954
scalar three_caches_scenario_3_links_network.node[2].core_layer 	interests[2] 	15697
scalar three_caches_scenario_3_links_network.node[2].core_layer 	data[2] 	13224
scalar three_caches_scenario_3_links_network.node[2].content_store 	p_hit[2] 	0.15754602790342
scalar three_caches_scenario_3_links_network.node[2].content_store 	hits[2] 	2473
scalar three_caches_scenario_3_links_network.node[2].content_store 	misses[2] 	13224
scalar three_caches_scenario_3_links_network.node[2].content_store 	decision_yes[2] 	19
scalar three_caches_scenario_3_links_network.node[2].content_store 	decision_no[2] 	13205
scalar three_caches_scenario_3_links_network.node[3].core_layer 	interests[3] 	16133
scalar three_caches_scenario_3_links_network.node[3].core_layer 	data[3] 	13654
scalar three_caches_scenario_3_links_network.node[3].content_store 	p_hit[3] 	0.1536601995909
scalar three_caches_scenario_3_links_network.node[3].content_store 	hits[3] 	2479
scalar three_caches_scenario_3_links_network.node[3].content_store 	misses[3] 	13654
scalar three_caches_scenario_3_links_network.node[3].content_store 	decision_yes[3] 	11
scalar three_caches_scenario_3_links_network.node[3].content_store 	decision_no[3] 	13643
scalar three_caches_scenario_3_links_network.node[4].core_layer 	interests[4] 	7954
scalar three_caches_scenario_3_links_network.node[4].core_layer 	repo_load[4] 	7954
scalar three_caches_scenario_3_links_network.node[4].core_layer 	data[4] 	0
scalar three_caches_scenario_3_links_network.node[4].content_store 	p_hit[4] 	0
scalar three_caches_scenario_3_links_network.node[4].content_store 	hits[4] 	0
scalar three_caches_scenario_3_links_network.node[4].content_store 	misses[4] 	7954
scalar three_caches_scenario_3_links_network.node[4].content_store 	decision_yes[4] 	0
scalar three_caches_scenario_3_links_network.node[4].content_store 	decision_no[4] 	7954
scalar three_caches_scenario_3_links_network.node[5].core_layer 	interests[5] 	13224
scalar three_caches_scenario_3_links_network.node[5].core_layer 	repo_load[5] 	13224
scalar three_caches_scenario_3_links_network.node[5].core_layer 	data[5] 	0
scalar three_caches_scenario_3_links_network.node[5].content_store 	p_hit[5] 	0
scalar three_caches_scenario_3_links_network.node[5].content_store 	hits[5] 	0
scalar three_caches_scenario_3_links_network.node[5].content_store 	misses[5] 	13224
scalar three_caches_scenario_3_links_network.node[5].content_store 	decision_yes[5] 	0
scalar three_caches_scenario_3_links_network.node[5].content_store 	decision_no[5] 	13224
scalar three_caches_scenario_3_links_network.node[6].core_layer 	interests[6] 	13654
scalar three_caches_scenario_3_links_network.node[6].core_layer 	repo_load[6] 	13654
scalar three_caches_scenario_3_links_network.node[6].core_layer 	data[6] 	0
scalar three_caches_scenario_3_links_network.node[6].content_store 	p_hit[6] 	0
scalar three_caches_scenario_3_links_network.node[6].content_store 	hits[6] 	0
scalar three_caches_scenario_3_links_network.node[6].content_store 	misses[6] 	13654
scalar three_caches_scenario_3_links_network.node[6].content_store 	decision_yes[6] 	0
scalar three_caches_scenario_3_links_network.node[6].content_store 	decision_no[6] 	13654
scalar three_caches_scenario_3_links_network.client[0] 	hdistance[0] 	0.56514597219206
scalar three_caches_scenario_3_links_network.client[0] 	downloads[0] 	179589
scalar three_caches_scenario_3_links_network.client[0] 	avg_time[0] 	0
scalar three_caches_scenario_3_links_network.client[0] 	interests_sent[0] 	179589
