version 2
run General-3635-20140423-20:03:55-30689
attr D costprob0.01
attr F nrr
attr R lru
attr a 1.2
attr configname General
attr csize 2
attr ctlg 10^3
attr datetime 20140423-20:03:55
attr experiment General
attr inifile omnetpp.ini
attr iterationvars "$net=simple_scenario, $rep=11, $priceratiovalue=1, $a=1.2, $ctlg=10^3, $F=nrr, $ttl=1000, $D=costprob0.01, $R=lru, $csize=2"
attr iterationvars2 "$net=simple_scenario, $rep=11, $priceratiovalue=1, $a=1.2, $ctlg=10^3, $F=nrr, $ttl=1000, $D=costprob0.01, $R=lru, $csize=2, $repetition=0"
attr measurement "$net=simple_scenario, $rep=11, $priceratiovalue=1, $a=1.2, $ctlg=10^3, $F=nrr, $ttl=1000, $D=costprob0.01, $R=lru, $csize=2"
attr net simple_scenario
attr network networks.${net=simple_scenario}_network
attr priceratiovalue 1
attr processid 30689
attr rep 11
attr repetition 0
attr replication #0
attr resultdir results
attr runnumber 3635
attr seedset 11
attr ttl 1000

scalar . 	a 	1.2
scalar . 	csize 	2
scalar . 	priceratiovalue 	1
scalar . 	rep 	11
scalar . 	ttl 	1000
scalar simple_scenario_network.content_distribution 	repo-0 	3
scalar simple_scenario_network.content_distribution 	repo-1 	4
scalar simple_scenario_network.content_distribution 	client-0 	0
scalar simple_scenario_network.content_distribution 	repo-0_card 	503
scalar simple_scenario_network.content_distribution 	repo-1_card 	497
scalar simple_scenario_network.statistics 	p_hit 	0.14966829235327
scalar simple_scenario_network.statistics 	interests 	88783
scalar simple_scenario_network.statistics 	data 	52757.2
scalar simple_scenario_network.statistics 	hdistance 	2.0955814999251
scalar simple_scenario_network.statistics 	avg_time 	0.001985644613
scalar simple_scenario_network.statistics 	downloads 	180129
scalar simple_scenario_network.statistics 	total_cost 	56844
scalar simple_scenario_network.node[0].core_layer 	interests[0] 	180129
scalar simple_scenario_network.node[0].core_layer 	data[0] 	150097
scalar simple_scenario_network.node[0].core_layer 	repo_int[0] 	113689
scalar simple_scenario_network.node[0].content_store 	p_hit[0] 	0.16672495822438
scalar simple_scenario_network.node[0].content_store 	hits[0] 	30032
scalar simple_scenario_network.node[0].content_store 	misses[0] 	150097
scalar simple_scenario_network.node[1].core_layer 	interests[1] 	54748
scalar simple_scenario_network.node[1].core_layer 	data[1] 	44656
scalar simple_scenario_network.node[1].content_store 	p_hit[1] 	0.18433550084021
scalar simple_scenario_network.node[1].content_store 	hits[1] 	10092
scalar simple_scenario_network.node[1].content_store 	misses[1] 	44656
scalar simple_scenario_network.node[2].core_layer 	interests[2] 	95349
scalar simple_scenario_network.node[2].core_layer 	data[2] 	69033
scalar simple_scenario_network.node[2].content_store 	p_hit[2] 	0.27599660195702
scalar simple_scenario_network.node[2].content_store 	hits[2] 	26316
scalar simple_scenario_network.node[2].content_store 	misses[2] 	69033
scalar simple_scenario_network.node[3].core_layer 	interests[3] 	44656
scalar simple_scenario_network.node[3].core_layer 	repo_load[3] 	44656
scalar simple_scenario_network.node[3].core_layer 	data[3] 	0
scalar simple_scenario_network.node[3].content_store 	p_hit[3] 	0
scalar simple_scenario_network.node[3].content_store 	hits[3] 	0
scalar simple_scenario_network.node[3].content_store 	misses[3] 	44656
scalar simple_scenario_network.node[4].core_layer 	interests[4] 	69033
scalar simple_scenario_network.node[4].core_layer 	repo_load[4] 	69033
scalar simple_scenario_network.node[4].core_layer 	data[4] 	0
scalar simple_scenario_network.node[4].content_store 	p_hit[4] 	0
scalar simple_scenario_network.node[4].content_store 	hits[4] 	0
scalar simple_scenario_network.node[4].content_store 	misses[4] 	69033
scalar simple_scenario_network.client[0] 	hdistance[0] 	2.0955814999251
scalar simple_scenario_network.client[0] 	downloads[0] 	180129
scalar simple_scenario_network.client[0] 	avg_time[0] 	0.001985644613
