version 2
run General-3715-20140425-05:17:39-15737
attr D prob_cache
attr F nrr
attr R lru
attr a 0.8
attr configname General
attr csize 9
attr ctlg 10^3
attr datetime 20140425-05:17:39
attr experiment General
attr inifile omnetpp.ini
attr iterationvars "$net=one_cache_scenario, $rep=9, $priceratiovalue=9, $a=0.8, $ctlg=10^3, $F=nrr, $ttl=1000, $D=prob_cache, $R=lru, $csize=9"
attr iterationvars2 "$net=one_cache_scenario, $rep=9, $priceratiovalue=9, $a=0.8, $ctlg=10^3, $F=nrr, $ttl=1000, $D=prob_cache, $R=lru, $csize=9, $repetition=0"
attr measurement "$net=one_cache_scenario, $rep=9, $priceratiovalue=9, $a=0.8, $ctlg=10^3, $F=nrr, $ttl=1000, $D=prob_cache, $R=lru, $csize=9"
attr net one_cache_scenario
attr network networks.${net=one_cache_scenario}_network
attr priceratiovalue 9
attr processid 15737
attr rep 9
attr repetition 0
attr replication #0
attr resultdir results
attr runnumber 3715
attr seedset 9
attr ttl 1000

scalar . 	a 	0.8
scalar . 	csize 	9
scalar . 	priceratiovalue 	9
scalar . 	rep 	9
scalar . 	ttl 	1000
scalar one_cache_scenario_network.content_distribution 	repo-0 	3
scalar one_cache_scenario_network.content_distribution 	repo-1 	4
scalar one_cache_scenario_network.content_distribution 	client-0 	0
scalar one_cache_scenario_network.content_distribution 	repo-0_card 	499
scalar one_cache_scenario_network.content_distribution 	repo-1_card 	501
scalar one_cache_scenario_network.statistics 	p_hit 	0.042848482529299
scalar one_cache_scenario_network.statistics 	interests 	99303.4
scalar one_cache_scenario_network.statistics 	data 	63365.6
scalar one_cache_scenario_network.statistics 	hdistance 	1.7632019767487
scalar one_cache_scenario_network.statistics 	avg_time 	0
scalar one_cache_scenario_network.statistics 	downloads 	179689
scalar one_cache_scenario_network.statistics 	total_cost 	78724
scalar one_cache_scenario_network.statistics 	interests_sent 	179689
scalar one_cache_scenario_network.node[0].core_layer 	interests[0] 	179689
scalar one_cache_scenario_network.node[0].core_layer 	data[0] 	158414
scalar one_cache_scenario_network.node[0].core_layer 	repo_int[0] 	158414
scalar one_cache_scenario_network.node[0].content_store 	p_hit[0] 	0.11839901162564
scalar one_cache_scenario_network.node[0].content_store 	hits[0] 	21275
scalar one_cache_scenario_network.node[0].content_store 	misses[0] 	158414
scalar one_cache_scenario_network.node[0].content_store 	decision_yes[0] 	15672
scalar one_cache_scenario_network.node[0].content_store 	decision_no[0] 	142742
scalar one_cache_scenario_network.node[1].core_layer 	interests[1] 	79810
scalar one_cache_scenario_network.node[1].core_layer 	data[1] 	79810
scalar one_cache_scenario_network.node[1].content_store 	p_hit[1] 	0
scalar one_cache_scenario_network.node[1].content_store 	hits[1] 	0
scalar one_cache_scenario_network.node[1].content_store 	misses[1] 	79810
scalar one_cache_scenario_network.node[1].content_store 	decision_yes[1] 	0
scalar one_cache_scenario_network.node[1].content_store 	decision_no[1] 	79810
scalar one_cache_scenario_network.node[2].core_layer 	interests[2] 	78604
scalar one_cache_scenario_network.node[2].core_layer 	data[2] 	78604
scalar one_cache_scenario_network.node[2].content_store 	p_hit[2] 	0
scalar one_cache_scenario_network.node[2].content_store 	hits[2] 	0
scalar one_cache_scenario_network.node[2].content_store 	misses[2] 	78604
scalar one_cache_scenario_network.node[2].content_store 	decision_yes[2] 	0
scalar one_cache_scenario_network.node[2].content_store 	decision_no[2] 	78604
scalar one_cache_scenario_network.node[3].core_layer 	interests[3] 	79810
scalar one_cache_scenario_network.node[3].core_layer 	repo_load[3] 	79810
scalar one_cache_scenario_network.node[3].core_layer 	data[3] 	0
scalar one_cache_scenario_network.node[3].content_store 	p_hit[3] 	0
scalar one_cache_scenario_network.node[3].content_store 	hits[3] 	0
scalar one_cache_scenario_network.node[3].content_store 	misses[3] 	79810
scalar one_cache_scenario_network.node[3].content_store 	decision_yes[3] 	0
scalar one_cache_scenario_network.node[3].content_store 	decision_no[3] 	79810
scalar one_cache_scenario_network.node[4].core_layer 	interests[4] 	78604
scalar one_cache_scenario_network.node[4].core_layer 	repo_load[4] 	78604
scalar one_cache_scenario_network.node[4].core_layer 	data[4] 	0
scalar one_cache_scenario_network.node[4].content_store 	p_hit[4] 	0
scalar one_cache_scenario_network.node[4].content_store 	hits[4] 	0
scalar one_cache_scenario_network.node[4].content_store 	misses[4] 	78604
scalar one_cache_scenario_network.node[4].content_store 	decision_yes[4] 	0
scalar one_cache_scenario_network.node[4].content_store 	decision_no[4] 	78604
scalar one_cache_scenario_network.client[0] 	hdistance[0] 	1.7632019767487
scalar one_cache_scenario_network.client[0] 	downloads[0] 	179689
scalar one_cache_scenario_network.client[0] 	avg_time[0] 	0
scalar one_cache_scenario_network.client[0] 	interests_sent[0] 	179689
