version 2
run General-1406-20140421-20:33:44-16158
attr D prob_cache
attr F nrr
attr R lru
attr a 0.8
attr configname General
attr csize 10
attr ctlg 10^3
attr datetime 20140421-20:33:44
attr experiment General
attr inifile omnetpp.ini
attr iterationvars "$net=simple_scenario, $rep=29, $priceratiovalue=5, $a=0.8, $ctlg=10^3, $F=nrr, $ttl=1000, $D=prob_cache, $R=lru, $csize=10"
attr iterationvars2 "$net=simple_scenario, $rep=29, $priceratiovalue=5, $a=0.8, $ctlg=10^3, $F=nrr, $ttl=1000, $D=prob_cache, $R=lru, $csize=10, $repetition=0"
attr measurement "$net=simple_scenario, $rep=29, $priceratiovalue=5, $a=0.8, $ctlg=10^3, $F=nrr, $ttl=1000, $D=prob_cache, $R=lru, $csize=10"
attr net simple_scenario
attr network networks.${net=simple_scenario}_network
attr priceratiovalue 5
attr processid 16158
attr rep 29
attr repetition 0
attr replication #0
attr resultdir results
attr runnumber 1406
attr seedset 29
attr ttl 1000

scalar . 	a 	0.8
scalar . 	csize 	10
scalar . 	priceratiovalue 	5
scalar . 	rep 	29
scalar . 	ttl 	1000
scalar simple_scenario_network.content_distribution 	repo-0 	3
scalar simple_scenario_network.content_distribution 	repo-1 	4
scalar simple_scenario_network.content_distribution 	client-0 	0
scalar simple_scenario_network.content_distribution 	repo-0_card 	507
scalar simple_scenario_network.content_distribution 	repo-1_card 	493
scalar simple_scenario_network.statistics 	p_hit 	0.078438863024797
scalar simple_scenario_network.statistics 	interests 	95284.4
scalar simple_scenario_network.statistics 	data 	59429.4
scalar simple_scenario_network.statistics 	hdistance 	2.44904197462
scalar simple_scenario_network.statistics 	avg_time 	0.001998226964
scalar simple_scenario_network.statistics 	downloads 	179275
scalar simple_scenario_network.statistics 	total_cost 	69528
scalar simple_scenario_network.node[0].core_layer 	interests[0] 	179275
scalar simple_scenario_network.node[0].core_layer 	data[0] 	155242
scalar simple_scenario_network.node[0].core_layer 	repo_int[0] 	141905
scalar simple_scenario_network.node[0].content_store 	p_hit[0] 	0.1340566169293
scalar simple_scenario_network.node[0].content_store 	hits[0] 	24033
scalar simple_scenario_network.node[0].content_store 	misses[0] 	155242
scalar simple_scenario_network.node[1].core_layer 	interests[1] 	79685
scalar simple_scenario_network.node[1].core_layer 	data[1] 	73088
scalar simple_scenario_network.node[1].content_store 	p_hit[1] 	0.082788479638577
scalar simple_scenario_network.node[1].content_store 	hits[1] 	6597
scalar simple_scenario_network.node[1].content_store 	misses[1] 	73088
scalar simple_scenario_network.node[2].core_layer 	interests[2] 	75557
scalar simple_scenario_network.node[2].core_layer 	data[2] 	68817
scalar simple_scenario_network.node[2].content_store 	p_hit[2] 	0.08920417697897
scalar simple_scenario_network.node[2].content_store 	hits[2] 	6740
scalar simple_scenario_network.node[2].content_store 	misses[2] 	68817
scalar simple_scenario_network.node[3].core_layer 	interests[3] 	73088
scalar simple_scenario_network.node[3].core_layer 	repo_load[3] 	73088
scalar simple_scenario_network.node[3].core_layer 	data[3] 	0
scalar simple_scenario_network.node[3].content_store 	p_hit[3] 	0
scalar simple_scenario_network.node[3].content_store 	hits[3] 	0
scalar simple_scenario_network.node[3].content_store 	misses[3] 	73088
scalar simple_scenario_network.node[4].core_layer 	interests[4] 	68817
scalar simple_scenario_network.node[4].core_layer 	repo_load[4] 	68817
scalar simple_scenario_network.node[4].core_layer 	data[4] 	0
scalar simple_scenario_network.node[4].content_store 	p_hit[4] 	0
scalar simple_scenario_network.node[4].content_store 	hits[4] 	0
scalar simple_scenario_network.node[4].content_store 	misses[4] 	68817
scalar simple_scenario_network.client[0] 	hdistance[0] 	2.44904197462
scalar simple_scenario_network.client[0] 	downloads[0] 	179275
scalar simple_scenario_network.client[0] 	avg_time[0] 	0.001998226964
