version 2
run General-206-20140421-20:06:01-14862
attr D prob_cache
attr F nrr
attr R lru
attr a 0.8
attr configname General
attr csize 10
attr ctlg 10^3
attr datetime 20140421-20:06:01
attr experiment General
attr inifile omnetpp.ini
attr iterationvars "$net=simple_scenario, $rep=9, $priceratiovalue=5, $a=0.8, $ctlg=10^3, $F=nrr, $ttl=1000, $D=prob_cache, $R=lru, $csize=10"
attr iterationvars2 "$net=simple_scenario, $rep=9, $priceratiovalue=5, $a=0.8, $ctlg=10^3, $F=nrr, $ttl=1000, $D=prob_cache, $R=lru, $csize=10, $repetition=0"
attr measurement "$net=simple_scenario, $rep=9, $priceratiovalue=5, $a=0.8, $ctlg=10^3, $F=nrr, $ttl=1000, $D=prob_cache, $R=lru, $csize=10"
attr net simple_scenario
attr network networks.${net=simple_scenario}_network
attr priceratiovalue 5
attr processid 14862
attr rep 9
attr repetition 0
attr replication #0
attr resultdir results
attr runnumber 206
attr seedset 9
attr ttl 1000

scalar . 	a 	0.8
scalar . 	csize 	10
scalar . 	priceratiovalue 	5
scalar . 	rep 	9
scalar . 	ttl 	1000
scalar simple_scenario_network.content_distribution 	repo-0 	3
scalar simple_scenario_network.content_distribution 	repo-1 	4
scalar simple_scenario_network.content_distribution 	client-0 	0
scalar simple_scenario_network.content_distribution 	repo-0_card 	514
scalar simple_scenario_network.content_distribution 	repo-1_card 	486
scalar simple_scenario_network.statistics 	p_hit 	0.078993578165764
scalar simple_scenario_network.statistics 	interests 	95673.6
scalar simple_scenario_network.statistics 	data 	59655
scalar simple_scenario_network.statistics 	hdistance 	2.4464026919425
scalar simple_scenario_network.statistics 	avg_time 	0.001998042999
scalar simple_scenario_network.statistics 	downloads 	180093
scalar simple_scenario_network.statistics 	total_cost 	65833
scalar simple_scenario_network.node[0].core_layer 	interests[0] 	180093
scalar simple_scenario_network.node[0].core_layer 	data[0] 	155970
scalar simple_scenario_network.node[0].core_layer 	repo_int[0] 	142305
scalar simple_scenario_network.node[0].content_store 	p_hit[0] 	0.13394746047875
scalar simple_scenario_network.node[0].content_store 	hits[0] 	24123
scalar simple_scenario_network.node[0].content_store 	misses[0] 	155970
scalar simple_scenario_network.node[1].core_layer 	interests[1] 	86850
scalar simple_scenario_network.node[1].core_layer 	data[1] 	79131
scalar simple_scenario_network.node[1].content_store 	p_hit[1] 	0.088877374784111
scalar simple_scenario_network.node[1].content_store 	hits[1] 	7719
scalar simple_scenario_network.node[1].content_store 	misses[1] 	79131
scalar simple_scenario_network.node[2].core_layer 	interests[2] 	69120
scalar simple_scenario_network.node[2].core_layer 	data[2] 	63174
scalar simple_scenario_network.node[2].content_store 	p_hit[2] 	0.086024305555556
scalar simple_scenario_network.node[2].content_store 	hits[2] 	5946
scalar simple_scenario_network.node[2].content_store 	misses[2] 	63174
scalar simple_scenario_network.node[3].core_layer 	interests[3] 	79131
scalar simple_scenario_network.node[3].core_layer 	repo_load[3] 	79131
scalar simple_scenario_network.node[3].core_layer 	data[3] 	0
scalar simple_scenario_network.node[3].content_store 	p_hit[3] 	0
scalar simple_scenario_network.node[3].content_store 	hits[3] 	0
scalar simple_scenario_network.node[3].content_store 	misses[3] 	79131
scalar simple_scenario_network.node[4].core_layer 	interests[4] 	63174
scalar simple_scenario_network.node[4].core_layer 	repo_load[4] 	63174
scalar simple_scenario_network.node[4].core_layer 	data[4] 	0
scalar simple_scenario_network.node[4].content_store 	p_hit[4] 	0
scalar simple_scenario_network.node[4].content_store 	hits[4] 	0
scalar simple_scenario_network.node[4].content_store 	misses[4] 	63174
scalar simple_scenario_network.client[0] 	hdistance[0] 	2.4464026919425
scalar simple_scenario_network.client[0] 	downloads[0] 	180093
scalar simple_scenario_network.client[0] 	avg_time[0] 	0.001998042999
