version 2
run General-326-20140421-16:01:05-25755
attr D prob_cache
attr F nrr
attr R lru
attr a 0.8
attr configname General
attr csize 10
attr ctlg 10^3
attr datetime 20140421-16:01:05
attr experiment General
attr inifile omnetpp.ini
attr iterationvars "$net=simple_scenario, $rep=5, $priceratiovalue=5, $a=0.8, $ctlg=10^3, $F=nrr, $ttl=1000, $D=prob_cache, $R=lru, $csize=10"
attr iterationvars2 "$net=simple_scenario, $rep=5, $priceratiovalue=5, $a=0.8, $ctlg=10^3, $F=nrr, $ttl=1000, $D=prob_cache, $R=lru, $csize=10, $repetition=0"
attr measurement "$net=simple_scenario, $rep=5, $priceratiovalue=5, $a=0.8, $ctlg=10^3, $F=nrr, $ttl=1000, $D=prob_cache, $R=lru, $csize=10"
attr net simple_scenario
attr network networks.${net=simple_scenario}_network
attr priceratiovalue 5
attr processid 25755
attr rep 5
attr repetition 0
attr replication #0
attr resultdir results
attr runnumber 326
attr seedset 5
attr ttl 1000

scalar . 	a 	0.8
scalar . 	csize 	10
scalar . 	priceratiovalue 	5
scalar . 	rep 	5
scalar . 	ttl 	1000
scalar simple_scenario_network.content_distribution 	repo-0 	3
scalar simple_scenario_network.content_distribution 	repo-1 	4
scalar simple_scenario_network.content_distribution 	client-0 	0
scalar simple_scenario_network.content_distribution 	repo-0_card 	495
scalar simple_scenario_network.content_distribution 	repo-1_card 	505
scalar simple_scenario_network.statistics 	p_hit 	0.077675893428599
scalar simple_scenario_network.statistics 	interests 	95620.4
scalar simple_scenario_network.statistics 	data 	59688.2
scalar simple_scenario_network.statistics 	hdistance 	2.4544280617385
scalar simple_scenario_network.statistics 	avg_time 	0.001998146292
scalar simple_scenario_network.statistics 	downloads 	179661
scalar simple_scenario_network.statistics 	total_cost 	71280
scalar simple_scenario_network.node[0].core_layer 	interests[0] 	179661
scalar simple_scenario_network.node[0].core_layer 	data[0] 	155917
scalar simple_scenario_network.node[0].core_layer 	repo_int[0] 	142524
scalar simple_scenario_network.node[0].content_store 	p_hit[0] 	0.13216001246793
scalar simple_scenario_network.node[0].content_store 	hits[0] 	23744
scalar simple_scenario_network.node[0].content_store 	misses[0] 	155917
scalar simple_scenario_network.node[1].core_layer 	interests[1] 	78195
scalar simple_scenario_network.node[1].core_layer 	data[1] 	71234
scalar simple_scenario_network.node[1].content_store 	p_hit[1] 	0.089021037150713
scalar simple_scenario_network.node[1].content_store 	hits[1] 	6961
scalar simple_scenario_network.node[1].content_store 	misses[1] 	71234
scalar simple_scenario_network.node[2].core_layer 	interests[2] 	77722
scalar simple_scenario_network.node[2].core_layer 	data[2] 	71290
scalar simple_scenario_network.node[2].content_store 	p_hit[2] 	0.082756491083606
scalar simple_scenario_network.node[2].content_store 	hits[2] 	6432
scalar simple_scenario_network.node[2].content_store 	misses[2] 	71290
scalar simple_scenario_network.node[3].core_layer 	interests[3] 	71234
scalar simple_scenario_network.node[3].core_layer 	repo_load[3] 	71234
scalar simple_scenario_network.node[3].core_layer 	data[3] 	0
scalar simple_scenario_network.node[3].content_store 	p_hit[3] 	0
scalar simple_scenario_network.node[3].content_store 	hits[3] 	0
scalar simple_scenario_network.node[3].content_store 	misses[3] 	71234
scalar simple_scenario_network.node[4].core_layer 	interests[4] 	71290
scalar simple_scenario_network.node[4].core_layer 	repo_load[4] 	71290
scalar simple_scenario_network.node[4].core_layer 	data[4] 	0
scalar simple_scenario_network.node[4].content_store 	p_hit[4] 	0
scalar simple_scenario_network.node[4].content_store 	hits[4] 	0
scalar simple_scenario_network.node[4].content_store 	misses[4] 	71290
scalar simple_scenario_network.client[0] 	hdistance[0] 	2.4544280617385
scalar simple_scenario_network.client[0] 	downloads[0] 	179661
scalar simple_scenario_network.client[0] 	avg_time[0] 	0.001998146292
