version 2
run General-746-20140421-20:18:31-15443
attr D prob_cache
attr F nrr
attr R lru
attr a 0.8
attr configname General
attr csize 10
attr ctlg 10^3
attr datetime 20140421-20:18:31
attr experiment General
attr inifile omnetpp.ini
attr iterationvars "$net=simple_scenario, $rep=18, $priceratiovalue=5, $a=0.8, $ctlg=10^3, $F=nrr, $ttl=1000, $D=prob_cache, $R=lru, $csize=10"
attr iterationvars2 "$net=simple_scenario, $rep=18, $priceratiovalue=5, $a=0.8, $ctlg=10^3, $F=nrr, $ttl=1000, $D=prob_cache, $R=lru, $csize=10, $repetition=0"
attr measurement "$net=simple_scenario, $rep=18, $priceratiovalue=5, $a=0.8, $ctlg=10^3, $F=nrr, $ttl=1000, $D=prob_cache, $R=lru, $csize=10"
attr net simple_scenario
attr network networks.${net=simple_scenario}_network
attr priceratiovalue 5
attr processid 15443
attr rep 18
attr repetition 0
attr replication #0
attr resultdir results
attr runnumber 746
attr seedset 18
attr ttl 1000

scalar . 	a 	0.8
scalar . 	csize 	10
scalar . 	priceratiovalue 	5
scalar . 	rep 	18
scalar . 	ttl 	1000
scalar simple_scenario_network.content_distribution 	repo-0 	3
scalar simple_scenario_network.content_distribution 	repo-1 	4
scalar simple_scenario_network.content_distribution 	client-0 	0
scalar simple_scenario_network.content_distribution 	repo-0_card 	499
scalar simple_scenario_network.content_distribution 	repo-1_card 	501
scalar simple_scenario_network.statistics 	p_hit 	0.079099016789184
scalar simple_scenario_network.statistics 	interests 	95442.4
scalar simple_scenario_network.statistics 	data 	59500
scalar simple_scenario_network.statistics 	hdistance 	2.4453848379629
scalar simple_scenario_network.statistics 	avg_time 	0.001998120425
scalar simple_scenario_network.statistics 	downloads 	179712
scalar simple_scenario_network.statistics 	total_cost 	71051
scalar simple_scenario_network.node[0].core_layer 	interests[0] 	179712
scalar simple_scenario_network.node[0].core_layer 	data[0] 	155535
scalar simple_scenario_network.node[0].core_layer 	repo_int[0] 	141965
scalar simple_scenario_network.node[0].content_store 	p_hit[0] 	0.13453191773504
scalar simple_scenario_network.node[0].content_store 	hits[0] 	24177
scalar simple_scenario_network.node[0].content_store 	misses[0] 	155535
scalar simple_scenario_network.node[1].core_layer 	interests[1] 	78401
scalar simple_scenario_network.node[1].core_layer 	data[1] 	70879
scalar simple_scenario_network.node[1].content_store 	p_hit[1] 	0.095942653792681
scalar simple_scenario_network.node[1].content_store 	hits[1] 	7522
scalar simple_scenario_network.node[1].content_store 	misses[1] 	70879
scalar simple_scenario_network.node[2].core_layer 	interests[2] 	77134
scalar simple_scenario_network.node[2].core_layer 	data[2] 	71086
scalar simple_scenario_network.node[2].content_store 	p_hit[2] 	0.078409002515104
scalar simple_scenario_network.node[2].content_store 	hits[2] 	6048
scalar simple_scenario_network.node[2].content_store 	misses[2] 	71086
scalar simple_scenario_network.node[3].core_layer 	interests[3] 	70879
scalar simple_scenario_network.node[3].core_layer 	repo_load[3] 	70879
scalar simple_scenario_network.node[3].core_layer 	data[3] 	0
scalar simple_scenario_network.node[3].content_store 	p_hit[3] 	0
scalar simple_scenario_network.node[3].content_store 	hits[3] 	0
scalar simple_scenario_network.node[3].content_store 	misses[3] 	70879
scalar simple_scenario_network.node[4].core_layer 	interests[4] 	71086
scalar simple_scenario_network.node[4].core_layer 	repo_load[4] 	71086
scalar simple_scenario_network.node[4].core_layer 	data[4] 	0
scalar simple_scenario_network.node[4].content_store 	p_hit[4] 	0
scalar simple_scenario_network.node[4].content_store 	hits[4] 	0
scalar simple_scenario_network.node[4].content_store 	misses[4] 	71086
scalar simple_scenario_network.client[0] 	hdistance[0] 	2.4453848379629
scalar simple_scenario_network.client[0] 	downloads[0] 	179712
scalar simple_scenario_network.client[0] 	avg_time[0] 	0.001998120425
