version 2
run General-3640-20140423-20:04:04-30695
attr D prob_cache
attr F nrr
attr R lru
attr a 0
attr configname General
attr csize 0
attr ctlg 10^3
attr datetime 20140423-20:04:04
attr experiment General
attr inifile omnetpp.ini
attr iterationvars "$net=simple_scenario, $rep=11, $priceratiovalue=2, $a=0, $ctlg=10^3, $F=nrr, $ttl=1000, $D=prob_cache, $R=lru, $csize=0"
attr iterationvars2 "$net=simple_scenario, $rep=11, $priceratiovalue=2, $a=0, $ctlg=10^3, $F=nrr, $ttl=1000, $D=prob_cache, $R=lru, $csize=0, $repetition=0"
attr measurement "$net=simple_scenario, $rep=11, $priceratiovalue=2, $a=0, $ctlg=10^3, $F=nrr, $ttl=1000, $D=prob_cache, $R=lru, $csize=0"
attr net simple_scenario
attr network networks.${net=simple_scenario}_network
attr priceratiovalue 2
attr processid 30695
attr rep 11
attr repetition 0
attr replication #0
attr resultdir results
attr runnumber 3640
attr seedset 11
attr ttl 1000

scalar . 	a 	0
scalar . 	csize 	0
scalar . 	priceratiovalue 	2
scalar . 	rep 	11
scalar . 	ttl 	1000
scalar simple_scenario_network.content_distribution 	repo-0 	3
scalar simple_scenario_network.content_distribution 	repo-1 	4
scalar simple_scenario_network.content_distribution 	client-0 	0
scalar simple_scenario_network.content_distribution 	repo-0_card 	503
scalar simple_scenario_network.content_distribution 	repo-1_card 	497
scalar simple_scenario_network.statistics 	p_hit 	0
scalar simple_scenario_network.statistics 	interests 	107990.4
scalar simple_scenario_network.statistics 	data 	71993.6
scalar simple_scenario_network.statistics 	hdistance 	3
scalar simple_scenario_network.statistics 	avg_time 	0.001999787311
scalar simple_scenario_network.statistics 	downloads 	179984
scalar simple_scenario_network.statistics 	total_cost 	89903
scalar simple_scenario_network.node[0].core_layer 	interests[0] 	179984
scalar simple_scenario_network.node[0].core_layer 	data[0] 	179984
scalar simple_scenario_network.node[0].core_layer 	repo_int[0] 	179984
scalar simple_scenario_network.node[0].content_store 	p_hit[0] 	0
scalar simple_scenario_network.node[0].content_store 	hits[0] 	0
scalar simple_scenario_network.node[0].content_store 	misses[0] 	179984
scalar simple_scenario_network.node[1].core_layer 	interests[1] 	90256
scalar simple_scenario_network.node[1].core_layer 	data[1] 	90256
scalar simple_scenario_network.node[1].content_store 	p_hit[1] 	0
scalar simple_scenario_network.node[1].content_store 	hits[1] 	0
scalar simple_scenario_network.node[1].content_store 	misses[1] 	90256
scalar simple_scenario_network.node[2].core_layer 	interests[2] 	89728
scalar simple_scenario_network.node[2].core_layer 	data[2] 	89728
scalar simple_scenario_network.node[2].content_store 	p_hit[2] 	0
scalar simple_scenario_network.node[2].content_store 	hits[2] 	0
scalar simple_scenario_network.node[2].content_store 	misses[2] 	89728
scalar simple_scenario_network.node[3].core_layer 	interests[3] 	90256
scalar simple_scenario_network.node[3].core_layer 	repo_load[3] 	90256
scalar simple_scenario_network.node[3].core_layer 	data[3] 	0
scalar simple_scenario_network.node[3].content_store 	p_hit[3] 	0
scalar simple_scenario_network.node[3].content_store 	hits[3] 	0
scalar simple_scenario_network.node[3].content_store 	misses[3] 	90256
scalar simple_scenario_network.node[4].core_layer 	interests[4] 	89728
scalar simple_scenario_network.node[4].core_layer 	repo_load[4] 	89728
scalar simple_scenario_network.node[4].core_layer 	data[4] 	0
scalar simple_scenario_network.node[4].content_store 	p_hit[4] 	0
scalar simple_scenario_network.node[4].content_store 	hits[4] 	0
scalar simple_scenario_network.node[4].content_store 	misses[4] 	89728
scalar simple_scenario_network.client[0] 	hdistance[0] 	3
scalar simple_scenario_network.client[0] 	downloads[0] 	179984
scalar simple_scenario_network.client[0] 	avg_time[0] 	0.001999787311
