version 2
run General-1295-20140425-16:20:53-13814
attr D costprob0.2
attr F nrr
attr R lru
attr a 1.2
attr configname General
attr csize 9
attr ctlg 10^3
attr datetime 20140425-16:20:53
attr experiment General
attr inifile omnetpp.ini
attr iterationvars "$net=one_cache_scenario, $rep=11, $priceratiovalue=8, $a=1.2, $ctlg=10^3, $F=nrr, $ttl=1000, $D=costprob0.2, $R=lru, $csize=9"
attr iterationvars2 "$net=one_cache_scenario, $rep=11, $priceratiovalue=8, $a=1.2, $ctlg=10^3, $F=nrr, $ttl=1000, $D=costprob0.2, $R=lru, $csize=9, $repetition=0"
attr measurement "$net=one_cache_scenario, $rep=11, $priceratiovalue=8, $a=1.2, $ctlg=10^3, $F=nrr, $ttl=1000, $D=costprob0.2, $R=lru, $csize=9"
attr net one_cache_scenario
attr network networks.${net=one_cache_scenario}_network
attr priceratiovalue 8
attr processid 13814
attr rep 11
attr repetition 0
attr replication #0
attr resultdir results
attr runnumber 1295
attr seedset 11
attr ttl 1000

scalar . 	a 	1.2
scalar . 	csize 	9
scalar . 	priceratiovalue 	8
scalar . 	rep 	11
scalar . 	ttl 	1000
scalar one_cache_scenario_network.content_distribution 	repo-0 	3
scalar one_cache_scenario_network.content_distribution 	repo-1 	4
scalar one_cache_scenario_network.content_distribution 	client-0 	0
scalar one_cache_scenario_network.content_distribution 	repo-0_card 	488
scalar one_cache_scenario_network.content_distribution 	repo-1_card 	512
scalar one_cache_scenario_network.statistics 	p_hit 	0.20074590815357
scalar one_cache_scenario_network.statistics 	interests 	77006.8
scalar one_cache_scenario_network.statistics 	data 	41032
scalar one_cache_scenario_network.statistics 	hdistance 	1.1405761811045
scalar one_cache_scenario_network.statistics 	avg_time 	0
scalar one_cache_scenario_network.statistics 	downloads 	179874
scalar one_cache_scenario_network.statistics 	total_cost 	43145
scalar one_cache_scenario_network.statistics 	interests_sent 	179874
scalar one_cache_scenario_network.node[0].core_layer 	interests[0] 	179874
scalar one_cache_scenario_network.node[0].core_layer 	data[0] 	102580
scalar one_cache_scenario_network.node[0].core_layer 	repo_int[0] 	102580
scalar one_cache_scenario_network.node[0].content_store 	p_hit[0] 	0.42971190944772
scalar one_cache_scenario_network.node[0].content_store 	hits[0] 	77294
scalar one_cache_scenario_network.node[0].content_store 	misses[0] 	102580
scalar one_cache_scenario_network.node[0].content_store 	decision_yes[0] 	8767
scalar one_cache_scenario_network.node[0].content_store 	decision_no[0] 	93813
scalar one_cache_scenario_network.node[1].core_layer 	interests[1] 	61761
scalar one_cache_scenario_network.node[1].core_layer 	data[1] 	61761
scalar one_cache_scenario_network.node[1].content_store 	p_hit[1] 	0
scalar one_cache_scenario_network.node[1].content_store 	hits[1] 	0
scalar one_cache_scenario_network.node[1].content_store 	misses[1] 	61761
scalar one_cache_scenario_network.node[1].content_store 	decision_yes[1] 	0
scalar one_cache_scenario_network.node[1].content_store 	decision_no[1] 	61761
scalar one_cache_scenario_network.node[2].core_layer 	interests[2] 	40819
scalar one_cache_scenario_network.node[2].core_layer 	data[2] 	40819
scalar one_cache_scenario_network.node[2].content_store 	p_hit[2] 	0
scalar one_cache_scenario_network.node[2].content_store 	hits[2] 	0
scalar one_cache_scenario_network.node[2].content_store 	misses[2] 	40819
scalar one_cache_scenario_network.node[2].content_store 	decision_yes[2] 	0
scalar one_cache_scenario_network.node[2].content_store 	decision_no[2] 	40819
scalar one_cache_scenario_network.node[3].core_layer 	interests[3] 	61761
scalar one_cache_scenario_network.node[3].core_layer 	repo_load[3] 	61761
scalar one_cache_scenario_network.node[3].core_layer 	data[3] 	0
scalar one_cache_scenario_network.node[3].content_store 	p_hit[3] 	0
scalar one_cache_scenario_network.node[3].content_store 	hits[3] 	0
scalar one_cache_scenario_network.node[3].content_store 	misses[3] 	61761
scalar one_cache_scenario_network.node[3].content_store 	decision_yes[3] 	0
scalar one_cache_scenario_network.node[3].content_store 	decision_no[3] 	61761
scalar one_cache_scenario_network.node[4].core_layer 	interests[4] 	40819
scalar one_cache_scenario_network.node[4].core_layer 	repo_load[4] 	40819
scalar one_cache_scenario_network.node[4].core_layer 	data[4] 	0
scalar one_cache_scenario_network.node[4].content_store 	p_hit[4] 	0
scalar one_cache_scenario_network.node[4].content_store 	hits[4] 	0
scalar one_cache_scenario_network.node[4].content_store 	misses[4] 	40819
scalar one_cache_scenario_network.node[4].content_store 	decision_yes[4] 	0
scalar one_cache_scenario_network.node[4].content_store 	decision_no[4] 	40819
scalar one_cache_scenario_network.client[0] 	hdistance[0] 	1.1405761811045
scalar one_cache_scenario_network.client[0] 	downloads[0] 	179874
scalar one_cache_scenario_network.client[0] 	avg_time[0] 	0
scalar one_cache_scenario_network.client[0] 	interests_sent[0] 	179874
