version 2
run General-2015-20140425-16:35:41-14586
attr D costprob0.2
attr F nrr
attr R lru
attr a 1.2
attr configname General
attr csize 9
attr ctlg 10^3
attr datetime 20140425-16:35:41
attr experiment General
attr inifile omnetpp.ini
attr iterationvars "$net=one_cache_scenario, $rep=17, $priceratiovalue=8, $a=1.2, $ctlg=10^3, $F=nrr, $ttl=1000, $D=costprob0.2, $R=lru, $csize=9"
attr iterationvars2 "$net=one_cache_scenario, $rep=17, $priceratiovalue=8, $a=1.2, $ctlg=10^3, $F=nrr, $ttl=1000, $D=costprob0.2, $R=lru, $csize=9, $repetition=0"
attr measurement "$net=one_cache_scenario, $rep=17, $priceratiovalue=8, $a=1.2, $ctlg=10^3, $F=nrr, $ttl=1000, $D=costprob0.2, $R=lru, $csize=9"
attr net one_cache_scenario
attr network networks.${net=one_cache_scenario}_network
attr priceratiovalue 8
attr processid 14586
attr rep 17
attr repetition 0
attr replication #0
attr resultdir results
attr runnumber 2015
attr seedset 17
attr ttl 1000

scalar . 	a 	1.2
scalar . 	csize 	9
scalar . 	priceratiovalue 	8
scalar . 	rep 	17
scalar . 	ttl 	1000
scalar one_cache_scenario_network.content_distribution 	repo-0 	3
scalar one_cache_scenario_network.content_distribution 	repo-1 	4
scalar one_cache_scenario_network.content_distribution 	client-0 	0
scalar one_cache_scenario_network.content_distribution 	repo-0_card 	538
scalar one_cache_scenario_network.content_distribution 	repo-1_card 	462
scalar one_cache_scenario_network.statistics 	p_hit 	0.21311358879513
scalar one_cache_scenario_network.statistics 	interests 	75967
scalar one_cache_scenario_network.statistics 	data 	39851.6
scalar one_cache_scenario_network.statistics 	hdistance 	1.1034517131196
scalar one_cache_scenario_network.statistics 	avg_time 	0
scalar one_cache_scenario_network.statistics 	downloads 	180577
scalar one_cache_scenario_network.statistics 	total_cost 	44475
scalar one_cache_scenario_network.statistics 	interests_sent 	180577
scalar one_cache_scenario_network.node[0].core_layer 	interests[0] 	180577
scalar one_cache_scenario_network.node[0].core_layer 	data[0] 	99629
scalar one_cache_scenario_network.node[0].core_layer 	repo_int[0] 	99629
scalar one_cache_scenario_network.node[0].content_store 	p_hit[0] 	0.44827414344019
scalar one_cache_scenario_network.node[0].content_store 	hits[0] 	80948
scalar one_cache_scenario_network.node[0].content_store 	misses[0] 	99629
scalar one_cache_scenario_network.node[0].content_store 	decision_yes[0] 	8758
scalar one_cache_scenario_network.node[0].content_store 	decision_no[0] 	90871
scalar one_cache_scenario_network.node[1].core_layer 	interests[1] 	56678
scalar one_cache_scenario_network.node[1].core_layer 	data[1] 	56678
scalar one_cache_scenario_network.node[1].content_store 	p_hit[1] 	0
scalar one_cache_scenario_network.node[1].content_store 	hits[1] 	0
scalar one_cache_scenario_network.node[1].content_store 	misses[1] 	56678
scalar one_cache_scenario_network.node[1].content_store 	decision_yes[1] 	0
scalar one_cache_scenario_network.node[1].content_store 	decision_no[1] 	56678
scalar one_cache_scenario_network.node[2].core_layer 	interests[2] 	42951
scalar one_cache_scenario_network.node[2].core_layer 	data[2] 	42951
scalar one_cache_scenario_network.node[2].content_store 	p_hit[2] 	0
scalar one_cache_scenario_network.node[2].content_store 	hits[2] 	0
scalar one_cache_scenario_network.node[2].content_store 	misses[2] 	42951
scalar one_cache_scenario_network.node[2].content_store 	decision_yes[2] 	0
scalar one_cache_scenario_network.node[2].content_store 	decision_no[2] 	42951
scalar one_cache_scenario_network.node[3].core_layer 	interests[3] 	56678
scalar one_cache_scenario_network.node[3].core_layer 	repo_load[3] 	56678
scalar one_cache_scenario_network.node[3].core_layer 	data[3] 	0
scalar one_cache_scenario_network.node[3].content_store 	p_hit[3] 	0
scalar one_cache_scenario_network.node[3].content_store 	hits[3] 	0
scalar one_cache_scenario_network.node[3].content_store 	misses[3] 	56678
scalar one_cache_scenario_network.node[3].content_store 	decision_yes[3] 	0
scalar one_cache_scenario_network.node[3].content_store 	decision_no[3] 	56678
scalar one_cache_scenario_network.node[4].core_layer 	interests[4] 	42951
scalar one_cache_scenario_network.node[4].core_layer 	repo_load[4] 	42951
scalar one_cache_scenario_network.node[4].core_layer 	data[4] 	0
scalar one_cache_scenario_network.node[4].content_store 	p_hit[4] 	0
scalar one_cache_scenario_network.node[4].content_store 	hits[4] 	0
scalar one_cache_scenario_network.node[4].content_store 	misses[4] 	42951
scalar one_cache_scenario_network.node[4].content_store 	decision_yes[4] 	0
scalar one_cache_scenario_network.node[4].content_store 	decision_no[4] 	42951
scalar one_cache_scenario_network.client[0] 	hdistance[0] 	1.1034517131196
scalar one_cache_scenario_network.client[0] 	downloads[0] 	180577
scalar one_cache_scenario_network.client[0] 	avg_time[0] 	0
scalar one_cache_scenario_network.client[0] 	interests_sent[0] 	180577
