version 2
run General-22-20140428-04:10:56-19814
attr D fix0.01
attr F nrr
attr R lru
attr a 1
attr configname General
attr csize 1000
attr ctlg 10^5
attr datetime 20140428-04:10:56
attr experiment General
attr inifile omnetpp.ini
attr iterationvars "$net=one_cache_scenario, $rep=3, $priceratiovalue=10, $a=1, $ctlg=10^5, $F=nrr, $ttl=1000, $D=fix0.01, $xi=1, $R=lru, $csize=1000"
attr iterationvars2 "$net=one_cache_scenario, $rep=3, $priceratiovalue=10, $a=1, $ctlg=10^5, $F=nrr, $ttl=1000, $D=fix0.01, $xi=1, $R=lru, $csize=1000, $repetition=0"
attr measurement "$net=one_cache_scenario, $rep=3, $priceratiovalue=10, $a=1, $ctlg=10^5, $F=nrr, $ttl=1000, $D=fix0.01, $xi=1, $R=lru, $csize=1000"
attr net one_cache_scenario
attr network networks.${net=one_cache_scenario}_network
attr priceratiovalue 10
attr processid 19814
attr rep 3
attr repetition 0
attr replication #0
attr resultdir results
attr runnumber 22
attr seedset 3
attr ttl 1000
attr xi 1

scalar . 	a 	1
scalar . 	csize 	1000
scalar . 	priceratiovalue 	10
scalar . 	rep 	3
scalar . 	ttl 	1000
scalar . 	xi 	1
scalar one_cache_scenario_network.content_distribution 	repo-0 	3
scalar one_cache_scenario_network.content_distribution 	repo-1 	4
scalar one_cache_scenario_network.content_distribution 	client-0 	0
scalar one_cache_scenario_network.content_distribution 	repo-0_card 	50325
scalar one_cache_scenario_network.content_distribution 	repo-1_card 	49675
scalar one_cache_scenario_network.statistics 	p_hit 	0.32165345353372
scalar one_cache_scenario_network.statistics 	interests 	656947.4
scalar one_cache_scenario_network.statistics 	data 	297092
scalar one_cache_scenario_network.statistics 	hdistance 	0.82558716640074
scalar one_cache_scenario_network.statistics 	avg_time 	0
scalar one_cache_scenario_network.statistics 	downloads 	1799277
scalar one_cache_scenario_network.statistics 	total_cost 	367745
scalar one_cache_scenario_network.statistics 	interests_sent 	1799277
scalar one_cache_scenario_network.node[0].core_layer 	interests[0] 	1799277
scalar one_cache_scenario_network.node[0].core_layer 	data[0] 	742730
scalar one_cache_scenario_network.node[0].core_layer 	repo_int[0] 	742730
scalar one_cache_scenario_network.node[0].content_store 	p_hit[0] 	0.58720641679964
scalar one_cache_scenario_network.node[0].content_store 	hits[0] 	1056547
scalar one_cache_scenario_network.node[0].content_store 	misses[0] 	742730
scalar one_cache_scenario_network.node[0].content_store 	decision_yes[0] 	7329
scalar one_cache_scenario_network.node[0].content_store 	decision_no[0] 	735401
scalar one_cache_scenario_network.node[1].core_layer 	interests[1] 	375788
scalar one_cache_scenario_network.node[1].core_layer 	data[1] 	375788
scalar one_cache_scenario_network.node[1].content_store 	p_hit[1] 	0
scalar one_cache_scenario_network.node[1].content_store 	hits[1] 	0
scalar one_cache_scenario_network.node[1].content_store 	misses[1] 	375788
scalar one_cache_scenario_network.node[1].content_store 	decision_yes[1] 	0
scalar one_cache_scenario_network.node[1].content_store 	decision_no[1] 	375788
scalar one_cache_scenario_network.node[2].core_layer 	interests[2] 	366942
scalar one_cache_scenario_network.node[2].core_layer 	data[2] 	366942
scalar one_cache_scenario_network.node[2].content_store 	p_hit[2] 	0
scalar one_cache_scenario_network.node[2].content_store 	hits[2] 	0
scalar one_cache_scenario_network.node[2].content_store 	misses[2] 	366942
scalar one_cache_scenario_network.node[2].content_store 	decision_yes[2] 	0
scalar one_cache_scenario_network.node[2].content_store 	decision_no[2] 	366942
scalar one_cache_scenario_network.node[3].core_layer 	interests[3] 	375788
scalar one_cache_scenario_network.node[3].core_layer 	repo_load[3] 	375788
scalar one_cache_scenario_network.node[3].core_layer 	data[3] 	0
scalar one_cache_scenario_network.node[3].content_store 	p_hit[3] 	0
scalar one_cache_scenario_network.node[3].content_store 	hits[3] 	0
scalar one_cache_scenario_network.node[3].content_store 	misses[3] 	375788
scalar one_cache_scenario_network.node[3].content_store 	decision_yes[3] 	0
scalar one_cache_scenario_network.node[3].content_store 	decision_no[3] 	375788
scalar one_cache_scenario_network.node[4].core_layer 	interests[4] 	366942
scalar one_cache_scenario_network.node[4].core_layer 	repo_load[4] 	366942
scalar one_cache_scenario_network.node[4].core_layer 	data[4] 	0
scalar one_cache_scenario_network.node[4].content_store 	p_hit[4] 	0
scalar one_cache_scenario_network.node[4].content_store 	hits[4] 	0
scalar one_cache_scenario_network.node[4].content_store 	misses[4] 	366942
scalar one_cache_scenario_network.node[4].content_store 	decision_yes[4] 	0
scalar one_cache_scenario_network.node[4].content_store 	decision_no[4] 	366942
scalar one_cache_scenario_network.client[0] 	hdistance[0] 	0.82558716640074
scalar one_cache_scenario_network.client[0] 	downloads[0] 	1799277
scalar one_cache_scenario_network.client[0] 	avg_time[0] 	0
scalar one_cache_scenario_network.client[0] 	interests_sent[0] 	1799277
