version 2
run General-2-20140626-12:33:05-15736
attr D costprobprodcorr0.01
attr F nrr
attr R lru
attr a 1
attr configname General
attr csize 1e3
attr ctlg 1e5
attr datetime 20140626-12:33:05
attr experiment General
attr inifile omnetpp.ini
attr iterationvars "$net=abilene_cost, $rep=1, $priceratiovalue=10, $weights=0.333_0.333_0.334, $lambda=100, $a=1, $ctlg=1e5, $F=nrr, $ttl=1000, $D=costprobprodcorr0.01, $xi=0.75, $R=lru, $csize=1e3, $pricebits=0, $mytime=1800"
attr iterationvars2 "$net=abilene_cost, $rep=1, $priceratiovalue=10, $weights=0.333_0.333_0.334, $lambda=100, $a=1, $ctlg=1e5, $F=nrr, $ttl=1000, $D=costprobprodcorr0.01, $xi=0.75, $R=lru, $csize=1e3, $pricebits=0, $mytime=1800, $repetition=0"
attr lambda 100
attr measurement "$net=abilene_cost, $rep=1, $priceratiovalue=10, $weights=0.333_0.333_0.334, $lambda=100, $a=1, $ctlg=1e5, $F=nrr, $ttl=1000, $D=costprobprodcorr0.01, $xi=0.75, $R=lru, $csize=1e3, $pricebits=0, $mytime=1800"
attr mytime 1800
attr net abilene_cost
attr network networks.${net=abilene_cost}_network
attr pricebits 0
attr priceratiovalue 10
attr processid 15736
attr rep 1
attr repetition 0
attr replication #0
attr resultdir results
attr runnumber 2
attr seedset 1
attr ttl 1000
attr weights 0.333_0.333_0.334
attr xi 0.75

scalar . 	a 	1
scalar . 	csize 	1e3
scalar . 	ctlg 	1e5
scalar . 	lambda 	100
scalar . 	mytime 	1800
scalar . 	pricebits 	0
scalar . 	priceratiovalue 	10
scalar . 	rep 	1
scalar . 	ttl 	1000
scalar . 	xi 	0.75
scalar abilene_cost_network.content_distribution 	repo-0 	11
scalar abilene_cost_network.content_distribution 	repo-1 	12
scalar abilene_cost_network.content_distribution 	repo-2 	13
scalar abilene_cost_network.content_distribution 	client-0 	5
scalar abilene_cost_network.content_distribution 	client-1 	0
scalar abilene_cost_network.content_distribution 	client-2 	9
scalar abilene_cost_network.content_distribution 	repo-0_card 	33396
scalar abilene_cost_network.content_distribution 	repo-1_card 	33039
scalar abilene_cost_network.content_distribution 	repo-2_card 	33565
scalar abilene_cost_network.statistics 	repo_popularity[0] 	0.28686251265602
scalar abilene_cost_network.statistics 	repo_popularity[1] 	0.2886063426465
scalar abilene_cost_network.statistics 	repo_popularity[2] 	0.42453114469748
scalar abilene_cost_network.statistics 	stabilization_time 	1466.4
scalar abilene_cost_network.node[1].face$o[4].channel 	price[1] 	0
scalar abilene_cost_network.node[1].face$o[4].channel 	represented_price[1] 	0
scalar abilene_cost_network.node[7].face$o[4].channel 	price[7] 	0
scalar abilene_cost_network.node[7].face$o[4].channel 	represented_price[7] 	0
scalar abilene_cost_network.node[10].face$o[4].channel 	price[10] 	0
scalar abilene_cost_network.node[10].face$o[4].channel 	represented_price[10] 	0
scalar abilene_cost_network.node[11].face$o[1].channel 	price[11] 	0
scalar abilene_cost_network.node[11].face$o[1].channel 	represented_price[11] 	0
scalar abilene_cost_network.node[12].face$o[1].channel 	price[12] 	1
scalar abilene_cost_network.node[12].face$o[1].channel 	represented_price[12] 	1
scalar abilene_cost_network.node[13].face$o[1].channel 	price[13] 	10
scalar abilene_cost_network.node[13].face$o[1].channel 	represented_price[13] 	10
scalar abilene_cost_network.statistics 	p_hit 	0.10965554709389
scalar abilene_cost_network.statistics 	interests 	150538.92857143
scalar abilene_cost_network.statistics 	data 	112041.57142857
scalar abilene_cost_network.statistics 	hdistance 	3.5244573151538
scalar abilene_cost_network.statistics 	avg_time 	0.0156358267
scalar abilene_cost_network.statistics 	downloads 	529508
scalar abilene_cost_network.statistics 	total_cost 	790144
scalar abilene_cost_network.statistics 	total_replicas 	100000
scalar abilene_cost_network.statistics 	inner_hit 	0.4380330419937
scalar abilene_cost_network.statistics 	interests_sent 	538962
scalar abilene_cost_network.node[0].core_layer 	interests[0] 	195934
scalar abilene_cost_network.node[0].core_layer 	data[0] 	168075
scalar abilene_cost_network.node[0].core_layer 	repo_int[0] 	297566
scalar abilene_cost_network.node[0].content_store 	p_hit[0] 	0.12613431053314
scalar abilene_cost_network.node[0].content_store 	hits[0] 	24714
scalar abilene_cost_network.node[0].content_store 	misses[0] 	171220
scalar abilene_cost_network.node[0].content_store 	decision_yes[0] 	757
scalar abilene_cost_network.node[0].content_store 	decision_no[0] 	167318
scalar abilene_cost_network.node[0].content_store 	decision_ratio[0] 	0.0045039416926967
scalar abilene_cost_network.node[0].content_store 	correction_factor[0] 	0.0045223903011929
scalar abilene_cost_network.node[0].content_store 	xi[0] 	0.75
scalar abilene_cost_network.node[1].core_layer 	interests[1] 	236275
scalar abilene_cost_network.node[1].core_layer 	data[1] 	204466
scalar abilene_cost_network.node[1].content_store 	p_hit[1] 	0.13463972066448
scalar abilene_cost_network.node[1].content_store 	hits[1] 	31812
scalar abilene_cost_network.node[1].content_store 	misses[1] 	204463
scalar abilene_cost_network.node[1].content_store 	decision_yes[1] 	1963
scalar abilene_cost_network.node[1].content_store 	decision_no[1] 	202503
scalar abilene_cost_network.node[1].content_store 	decision_ratio[1] 	0.0096006181956902
scalar abilene_cost_network.node[1].content_store 	correction_factor[1] 	0.0045223903011929
scalar abilene_cost_network.node[1].content_store 	xi[1] 	0.75
scalar abilene_cost_network.node[2].core_layer 	interests[2] 	191983
scalar abilene_cost_network.node[2].core_layer 	data[2] 	179840
scalar abilene_cost_network.node[2].content_store 	p_hit[2] 	0.058901048530339
scalar abilene_cost_network.node[2].content_store 	hits[2] 	11308
scalar abilene_cost_network.node[2].content_store 	misses[2] 	180675
scalar abilene_cost_network.node[2].content_store 	decision_yes[2] 	689
scalar abilene_cost_network.node[2].content_store 	decision_no[2] 	179151
scalar abilene_cost_network.node[2].content_store 	decision_ratio[2] 	0.0038311832740214
scalar abilene_cost_network.node[2].content_store 	correction_factor[2] 	0.0045223903011929
scalar abilene_cost_network.node[2].content_store 	xi[2] 	0.75
scalar abilene_cost_network.node[3].core_layer 	interests[3] 	199396
scalar abilene_cost_network.node[3].core_layer 	data[3] 	144783
scalar abilene_cost_network.node[3].content_store 	p_hit[3] 	0.27389716945174
scalar abilene_cost_network.node[3].content_store 	hits[3] 	54614
scalar abilene_cost_network.node[3].content_store 	misses[3] 	144782
scalar abilene_cost_network.node[3].content_store 	decision_yes[3] 	768
scalar abilene_cost_network.node[3].content_store 	decision_no[3] 	144015
scalar abilene_cost_network.node[3].content_store 	decision_ratio[3] 	0.0053044901680446
scalar abilene_cost_network.node[3].content_store 	correction_factor[3] 	0.0045223903011929
scalar abilene_cost_network.node[3].content_store 	xi[3] 	0.75
scalar abilene_cost_network.node[4].core_layer 	interests[4] 	126312
scalar abilene_cost_network.node[4].core_layer 	data[4] 	123364
scalar abilene_cost_network.node[4].content_store 	p_hit[4] 	0.023346950408512
scalar abilene_cost_network.node[4].content_store 	hits[4] 	2949
scalar abilene_cost_network.node[4].content_store 	misses[4] 	123363
scalar abilene_cost_network.node[4].content_store 	decision_yes[4] 	529
scalar abilene_cost_network.node[4].content_store 	decision_no[4] 	122835
scalar abilene_cost_network.node[4].content_store 	decision_ratio[4] 	0.0042881229532116
scalar abilene_cost_network.node[4].content_store 	correction_factor[4] 	0.0045223903011929
scalar abilene_cost_network.node[4].content_store 	xi[4] 	0.75
scalar abilene_cost_network.node[5].core_layer 	interests[5] 	182988
scalar abilene_cost_network.node[5].core_layer 	data[5] 	172576
scalar abilene_cost_network.node[5].content_store 	p_hit[5] 	0.041713117800074
scalar abilene_cost_network.node[5].content_store 	hits[5] 	7633
scalar abilene_cost_network.node[5].content_store 	misses[5] 	175355
scalar abilene_cost_network.node[5].content_store 	decision_yes[5] 	717
scalar abilene_cost_network.node[5].content_store 	decision_no[5] 	171859
scalar abilene_cost_network.node[5].content_store 	decision_ratio[5] 	0.0041546912664565
scalar abilene_cost_network.node[5].content_store 	correction_factor[5] 	0.0045223903011929
scalar abilene_cost_network.node[5].content_store 	xi[5] 	0.75
scalar abilene_cost_network.node[6].core_layer 	interests[6] 	55527
scalar abilene_cost_network.node[6].core_layer 	data[6] 	47397
scalar abilene_cost_network.node[6].content_store 	p_hit[6] 	0.14639724818557
scalar abilene_cost_network.node[6].content_store 	hits[6] 	8129
scalar abilene_cost_network.node[6].content_store 	misses[6] 	47398
scalar abilene_cost_network.node[6].content_store 	decision_yes[6] 	105
scalar abilene_cost_network.node[6].content_store 	decision_no[6] 	47292
scalar abilene_cost_network.node[6].content_store 	decision_ratio[6] 	0.0022153300841825
scalar abilene_cost_network.node[6].content_store 	correction_factor[6] 	0.0045223903011929
scalar abilene_cost_network.node[6].content_store 	xi[6] 	0.75
scalar abilene_cost_network.node[7].core_layer 	interests[7] 	126162
scalar abilene_cost_network.node[7].core_layer 	data[7] 	86481
scalar abilene_cost_network.node[7].content_store 	p_hit[7] 	0.31446077265738
scalar abilene_cost_network.node[7].content_store 	hits[7] 	39673
scalar abilene_cost_network.node[7].content_store 	misses[7] 	86489
scalar abilene_cost_network.node[7].content_store 	decision_yes[7] 	304
scalar abilene_cost_network.node[7].content_store 	decision_no[7] 	86177
scalar abilene_cost_network.node[7].content_store 	decision_ratio[7] 	0.0035152229969589
scalar abilene_cost_network.node[7].content_store 	correction_factor[7] 	0.0045223903011929
scalar abilene_cost_network.node[7].content_store 	xi[7] 	0.75
scalar abilene_cost_network.node[8].core_layer 	interests[8] 	78181
scalar abilene_cost_network.node[8].core_layer 	data[8] 	68858
scalar abilene_cost_network.node[8].content_store 	p_hit[8] 	0.11924892237244
scalar abilene_cost_network.node[8].content_store 	hits[8] 	9323
scalar abilene_cost_network.node[8].content_store 	misses[8] 	68858
scalar abilene_cost_network.node[8].content_store 	decision_yes[8] 	110
scalar abilene_cost_network.node[8].content_store 	decision_no[8] 	68748
scalar abilene_cost_network.node[8].content_store 	decision_ratio[8] 	0.0015974904876703
scalar abilene_cost_network.node[8].content_store 	correction_factor[8] 	0.0045223903011929
scalar abilene_cost_network.node[8].content_store 	xi[8] 	0.75
scalar abilene_cost_network.node[9].core_layer 	interests[9] 	188425
scalar abilene_cost_network.node[9].core_layer 	data[9] 	170743
scalar abilene_cost_network.node[9].content_store 	p_hit[9] 	0.075106806421653
scalar abilene_cost_network.node[9].content_store 	hits[9] 	14152
scalar abilene_cost_network.node[9].content_store 	misses[9] 	174273
scalar abilene_cost_network.node[9].content_store 	decision_yes[9] 	722
scalar abilene_cost_network.node[9].content_store 	decision_no[9] 	170021
scalar abilene_cost_network.node[9].content_store 	decision_ratio[9] 	0.0042285774526628
scalar abilene_cost_network.node[9].content_store 	correction_factor[9] 	0.0045223903011929
scalar abilene_cost_network.node[9].content_store 	xi[9] 	0.75
scalar abilene_cost_network.node[10].core_layer 	interests[10] 	228796
scalar abilene_cost_network.node[10].core_layer 	data[10] 	201999
scalar abilene_cost_network.node[10].content_store 	p_hit[10] 	0.11712180282872
scalar abilene_cost_network.node[10].content_store 	hits[10] 	26797
scalar abilene_cost_network.node[10].content_store 	misses[10] 	201999
scalar abilene_cost_network.node[10].content_store 	decision_yes[10] 	574
scalar abilene_cost_network.node[10].content_store 	decision_no[10] 	201425
scalar abilene_cost_network.node[10].content_store 	decision_ratio[10] 	0.0028415982257338
scalar abilene_cost_network.node[10].content_store 	correction_factor[10] 	0.0045223903011929
scalar abilene_cost_network.node[10].content_store 	xi[10] 	0.75
scalar abilene_cost_network.node[11].core_layer 	interests[11] 	153982
scalar abilene_cost_network.node[11].core_layer 	repo_load[11] 	153982
scalar abilene_cost_network.node[11].core_layer 	data[11] 	0
scalar abilene_cost_network.node[11].content_store 	p_hit[11] 	0
scalar abilene_cost_network.node[11].content_store 	hits[11] 	0
scalar abilene_cost_network.node[11].content_store 	misses[11] 	153982
scalar abilene_cost_network.node[11].content_store 	decision_yes[11] 	0
scalar abilene_cost_network.node[11].content_store 	decision_no[11] 	153982
scalar abilene_cost_network.node[11].content_store 	decision_ratio[11] 	0
scalar abilene_cost_network.node[12].core_layer 	interests[12] 	71744
scalar abilene_cost_network.node[12].core_layer 	repo_load[12] 	71744
scalar abilene_cost_network.node[12].core_layer 	data[12] 	0
scalar abilene_cost_network.node[12].content_store 	p_hit[12] 	0
scalar abilene_cost_network.node[12].content_store 	hits[12] 	0
scalar abilene_cost_network.node[12].content_store 	misses[12] 	71744
scalar abilene_cost_network.node[12].content_store 	decision_yes[12] 	0
scalar abilene_cost_network.node[12].content_store 	decision_no[12] 	71744
scalar abilene_cost_network.node[12].content_store 	decision_ratio[12] 	0
scalar abilene_cost_network.node[13].core_layer 	interests[13] 	71840
scalar abilene_cost_network.node[13].core_layer 	repo_load[13] 	71840
scalar abilene_cost_network.node[13].core_layer 	data[13] 	0
scalar abilene_cost_network.node[13].content_store 	p_hit[13] 	0
scalar abilene_cost_network.node[13].content_store 	hits[13] 	0
scalar abilene_cost_network.node[13].content_store 	misses[13] 	71840
scalar abilene_cost_network.node[13].content_store 	decision_yes[13] 	0
scalar abilene_cost_network.node[13].content_store 	decision_no[13] 	71840
scalar abilene_cost_network.node[13].content_store 	decision_ratio[13] 	0
scalar abilene_cost_network.client[0] 	hdistance[0] 	3.0912583566049
scalar abilene_cost_network.client[0] 	downloads[0] 	177255
scalar abilene_cost_network.client[0] 	avg_time[0] 	0.014317356041
scalar abilene_cost_network.client[0] 	interests_sent[0] 	180400
scalar abilene_cost_network.client[5] 	hdistance[5] 	4.6280065376111
scalar abilene_cost_network.client[5] 	downloads[5] 	176823
scalar abilene_cost_network.client[5] 	avg_time[5] 	0.019254941261
scalar abilene_cost_network.client[5] 	interests_sent[5] 	179602
scalar abilene_cost_network.client[9] 	hdistance[9] 	2.8541070512455
scalar abilene_cost_network.client[9] 	downloads[9] 	175430
scalar abilene_cost_network.client[9] 	avg_time[9] 	0.013335182799
scalar abilene_cost_network.client[9] 	interests_sent[9] 	178960
