version 2
run General-12-20140625-18:15:53-12189
attr D costprobprodcorr0.01
attr F nrr
attr R lru
attr a 1
attr configname General
attr csize 1e3
attr ctlg 1e5
attr datetime 20140625-18:15:53
attr experiment General
attr inifile omnetpp.ini
attr iterationvars "$net=abilene_cost, $rep=1, $priceratiovalue=10, $weights=0.333_0.333_0.334, $lambda=100, $a=1, $ctlg=1e5, $F=nrr, $ttl=1000, $D=costprobprodcorr0.01, $xi=0.01, $R=lru, $csize=1e3, $pricebits=0, $mytime=1800"
attr iterationvars2 "$net=abilene_cost, $rep=1, $priceratiovalue=10, $weights=0.333_0.333_0.334, $lambda=100, $a=1, $ctlg=1e5, $F=nrr, $ttl=1000, $D=costprobprodcorr0.01, $xi=0.01, $R=lru, $csize=1e3, $pricebits=0, $mytime=1800, $repetition=0"
attr lambda 100
attr measurement "$net=abilene_cost, $rep=1, $priceratiovalue=10, $weights=0.333_0.333_0.334, $lambda=100, $a=1, $ctlg=1e5, $F=nrr, $ttl=1000, $D=costprobprodcorr0.01, $xi=0.01, $R=lru, $csize=1e3, $pricebits=0, $mytime=1800"
attr mytime 1800
attr net abilene_cost
attr network "networks.${net=geant_cost, abilene_cost}_network"
attr pricebits 0
attr priceratiovalue 10
attr processid 12189
attr rep 1
attr repetition 0
attr replication #0
attr resultdir results
attr runnumber 12
attr seedset 1
attr ttl 1000
attr weights 0.333_0.333_0.334
attr xi 0.01

scalar . 	a 	1
scalar . 	csize 	1e3
scalar . 	ctlg 	1e5
scalar . 	lambda 	100
scalar . 	mytime 	1800
scalar . 	pricebits 	0
scalar . 	priceratiovalue 	10
scalar . 	rep 	1
scalar . 	ttl 	1000
scalar . 	xi 	0.01
scalar abilene_cost_network.content_distribution 	repo-0 	11
scalar abilene_cost_network.content_distribution 	repo-1 	12
scalar abilene_cost_network.content_distribution 	repo-2 	13
scalar abilene_cost_network.content_distribution 	client-0 	5
scalar abilene_cost_network.content_distribution 	client-1 	0
scalar abilene_cost_network.content_distribution 	client-2 	9
scalar abilene_cost_network.content_distribution 	repo-0_card 	33396
scalar abilene_cost_network.content_distribution 	repo-1_card 	33039
scalar abilene_cost_network.content_distribution 	repo-2_card 	33565
scalar abilene_cost_network.statistics 	repo_popularity[0] 	0.28686251265602
scalar abilene_cost_network.statistics 	repo_popularity[1] 	0.2886063426465
scalar abilene_cost_network.statistics 	repo_popularity[2] 	0.42453114469748
scalar abilene_cost_network.statistics 	stabilization_time 	468.1
scalar abilene_cost_network.node[1].face$o[4].channel 	price[1] 	0
scalar abilene_cost_network.node[1].face$o[4].channel 	represented_price[1] 	0
scalar abilene_cost_network.node[7].face$o[4].channel 	price[7] 	0
scalar abilene_cost_network.node[7].face$o[4].channel 	represented_price[7] 	0
scalar abilene_cost_network.node[10].face$o[4].channel 	price[10] 	0
scalar abilene_cost_network.node[10].face$o[4].channel 	represented_price[10] 	0
scalar abilene_cost_network.node[11].face$o[1].channel 	price[11] 	0
scalar abilene_cost_network.node[11].face$o[1].channel 	represented_price[11] 	0
scalar abilene_cost_network.node[12].face$o[1].channel 	price[12] 	1
scalar abilene_cost_network.node[12].face$o[1].channel 	represented_price[12] 	1
scalar abilene_cost_network.node[13].face$o[1].channel 	price[13] 	10
scalar abilene_cost_network.node[13].face$o[1].channel 	represented_price[13] 	10
scalar abilene_cost_network.statistics 	p_hit 	0.11229277311848
scalar abilene_cost_network.statistics 	interests 	148116.64285714
scalar abilene_cost_network.statistics 	data 	109586.92857143
scalar abilene_cost_network.statistics 	hdistance 	3.4514454944411
scalar abilene_cost_network.statistics 	avg_time 	0.015025265694
scalar abilene_cost_network.statistics 	downloads 	531268
scalar abilene_cost_network.statistics 	total_cost 	813242
scalar abilene_cost_network.statistics 	total_replicas 	100000
scalar abilene_cost_network.statistics 	inner_hit 	0.43831173720232
scalar abilene_cost_network.statistics 	interests_sent 	539412
scalar abilene_cost_network.node[0].core_layer 	interests[0] 	190555
scalar abilene_cost_network.node[0].core_layer 	data[0] 	169503
scalar abilene_cost_network.node[0].core_layer 	repo_int[0] 	298407
scalar abilene_cost_network.node[0].content_store 	p_hit[0] 	0.098501744903046
scalar abilene_cost_network.node[0].content_store 	hits[0] 	18770
scalar abilene_cost_network.node[0].content_store 	misses[0] 	171785
scalar abilene_cost_network.node[0].content_store 	decision_yes[0] 	759
scalar abilene_cost_network.node[0].content_store 	decision_no[0] 	168744
scalar abilene_cost_network.node[0].content_store 	decision_ratio[0] 	0.004477796853153
scalar abilene_cost_network.node[0].content_store 	correction_factor[0] 	0.014819648008714
scalar abilene_cost_network.node[0].content_store 	xi[0] 	0.01
scalar abilene_cost_network.node[1].core_layer 	interests[1] 	268880
scalar abilene_cost_network.node[1].core_layer 	data[1] 	180473
scalar abilene_cost_network.node[1].content_store 	p_hit[1] 	0.32879351383517
scalar abilene_cost_network.node[1].content_store 	hits[1] 	88406
scalar abilene_cost_network.node[1].content_store 	misses[1] 	180474
scalar abilene_cost_network.node[1].content_store 	decision_yes[1] 	1496
scalar abilene_cost_network.node[1].content_store 	decision_no[1] 	178977
scalar abilene_cost_network.node[1].content_store 	decision_ratio[1] 	0.0082893285976296
scalar abilene_cost_network.node[1].content_store 	correction_factor[1] 	0.014819648008714
scalar abilene_cost_network.node[1].content_store 	xi[1] 	0.01
scalar abilene_cost_network.node[2].core_layer 	interests[2] 	172380
scalar abilene_cost_network.node[2].core_layer 	data[2] 	158593
scalar abilene_cost_network.node[2].content_store 	p_hit[2] 	0.079945469311985
scalar abilene_cost_network.node[2].content_store 	hits[2] 	13781
scalar abilene_cost_network.node[2].content_store 	misses[2] 	158599
scalar abilene_cost_network.node[2].content_store 	decision_yes[2] 	707
scalar abilene_cost_network.node[2].content_store 	decision_no[2] 	157886
scalar abilene_cost_network.node[2].content_store 	decision_ratio[2] 	0.0044579521164238
scalar abilene_cost_network.node[2].content_store 	correction_factor[2] 	0.014819648008714
scalar abilene_cost_network.node[2].content_store 	xi[2] 	0.01
scalar abilene_cost_network.node[3].core_layer 	interests[3] 	166251
scalar abilene_cost_network.node[3].core_layer 	data[3] 	151811
scalar abilene_cost_network.node[3].content_store 	p_hit[3] 	0.086850605409892
scalar abilene_cost_network.node[3].content_store 	hits[3] 	14439
scalar abilene_cost_network.node[3].content_store 	misses[3] 	151812
scalar abilene_cost_network.node[3].content_store 	decision_yes[3] 	695
scalar abilene_cost_network.node[3].content_store 	decision_no[3] 	151116
scalar abilene_cost_network.node[3].content_store 	decision_ratio[3] 	0.004578060878329
scalar abilene_cost_network.node[3].content_store 	correction_factor[3] 	0.014819648008714
scalar abilene_cost_network.node[3].content_store 	xi[3] 	0.01
scalar abilene_cost_network.node[4].core_layer 	interests[4] 	123875
scalar abilene_cost_network.node[4].core_layer 	data[4] 	120082
scalar abilene_cost_network.node[4].content_store 	p_hit[4] 	0.030611503531786
scalar abilene_cost_network.node[4].content_store 	hits[4] 	3792
scalar abilene_cost_network.node[4].content_store 	misses[4] 	120083
scalar abilene_cost_network.node[4].content_store 	decision_yes[4] 	379
scalar abilene_cost_network.node[4].content_store 	decision_no[4] 	119703
scalar abilene_cost_network.node[4].content_store 	decision_ratio[4] 	0.003156176612648
scalar abilene_cost_network.node[4].content_store 	correction_factor[4] 	0.014819648008714
scalar abilene_cost_network.node[4].content_store 	xi[4] 	0.01
scalar abilene_cost_network.node[5].core_layer 	interests[5] 	187402
scalar abilene_cost_network.node[5].core_layer 	data[5] 	165928
scalar abilene_cost_network.node[5].content_store 	p_hit[5] 	0.09643973917034
scalar abilene_cost_network.node[5].content_store 	hits[5] 	18073
scalar abilene_cost_network.node[5].content_store 	misses[5] 	169329
scalar abilene_cost_network.node[5].content_store 	decision_yes[5] 	668
scalar abilene_cost_network.node[5].content_store 	decision_no[5] 	165260
scalar abilene_cost_network.node[5].content_store 	decision_ratio[5] 	0.0040258425341112
scalar abilene_cost_network.node[5].content_store 	correction_factor[5] 	0.014819648008714
scalar abilene_cost_network.node[5].content_store 	xi[5] 	0.01
scalar abilene_cost_network.node[6].core_layer 	interests[6] 	55230
scalar abilene_cost_network.node[6].core_layer 	data[6] 	47942
scalar abilene_cost_network.node[6].content_store 	p_hit[6] 	0.13195726959986
scalar abilene_cost_network.node[6].content_store 	hits[6] 	7288
scalar abilene_cost_network.node[6].content_store 	misses[6] 	47942
scalar abilene_cost_network.node[6].content_store 	decision_yes[6] 	344
scalar abilene_cost_network.node[6].content_store 	decision_no[6] 	47598
scalar abilene_cost_network.node[6].content_store 	decision_ratio[6] 	0.007175336865379
scalar abilene_cost_network.node[6].content_store 	correction_factor[6] 	0.014819648008714
scalar abilene_cost_network.node[6].content_store 	xi[6] 	0.01
scalar abilene_cost_network.node[7].core_layer 	interests[7] 	119053
scalar abilene_cost_network.node[7].core_layer 	data[7] 	88078
scalar abilene_cost_network.node[7].content_store 	p_hit[7] 	0.26016984032322
scalar abilene_cost_network.node[7].content_store 	hits[7] 	30974
scalar abilene_cost_network.node[7].content_store 	misses[7] 	88079
scalar abilene_cost_network.node[7].content_store 	decision_yes[7] 	1002
scalar abilene_cost_network.node[7].content_store 	decision_no[7] 	87076
scalar abilene_cost_network.node[7].content_store 	decision_ratio[7] 	0.011376280115352
scalar abilene_cost_network.node[7].content_store 	correction_factor[7] 	0.014819648008714
scalar abilene_cost_network.node[7].content_store 	xi[7] 	0.01
scalar abilene_cost_network.node[8].core_layer 	interests[8] 	63940
scalar abilene_cost_network.node[8].core_layer 	data[8] 	57865
scalar abilene_cost_network.node[8].content_store 	p_hit[8] 	0.095010947763528
scalar abilene_cost_network.node[8].content_store 	hits[8] 	6075
scalar abilene_cost_network.node[8].content_store 	misses[8] 	57865
scalar abilene_cost_network.node[8].content_store 	decision_yes[8] 	343
scalar abilene_cost_network.node[8].content_store 	decision_no[8] 	57522
scalar abilene_cost_network.node[8].content_store 	decision_ratio[8] 	0.0059275900803595
scalar abilene_cost_network.node[8].content_store 	correction_factor[8] 	0.014819648008714
scalar abilene_cost_network.node[8].content_store 	xi[8] 	0.01
scalar abilene_cost_network.node[9].core_layer 	interests[9] 	195063
scalar abilene_cost_network.node[9].core_layer 	data[9] 	168842
scalar abilene_cost_network.node[9].content_store 	p_hit[9] 	0.12180680087972
scalar abilene_cost_network.node[9].content_store 	hits[9] 	23760
scalar abilene_cost_network.node[9].content_store 	misses[9] 	171303
scalar abilene_cost_network.node[9].content_store 	decision_yes[9] 	689
scalar abilene_cost_network.node[9].content_store 	decision_no[9] 	168153
scalar abilene_cost_network.node[9].content_store 	decision_ratio[9] 	0.004080738204949
scalar abilene_cost_network.node[9].content_store 	correction_factor[9] 	0.014819648008714
scalar abilene_cost_network.node[9].content_store 	xi[9] 	0.01
scalar abilene_cost_network.node[10].core_layer 	interests[10] 	232597
scalar abilene_cost_network.node[10].core_layer 	data[10] 	225100
scalar abilene_cost_network.node[10].content_store 	p_hit[10] 	0.032227414798987
scalar abilene_cost_network.node[10].content_store 	hits[10] 	7496
scalar abilene_cost_network.node[10].content_store 	misses[10] 	225101
scalar abilene_cost_network.node[10].content_store 	decision_yes[10] 	405
scalar abilene_cost_network.node[10].content_store 	decision_no[10] 	224695
scalar abilene_cost_network.node[10].content_store 	decision_ratio[10] 	0.0017992003553976
scalar abilene_cost_network.node[10].content_store 	correction_factor[10] 	0.014819648008714
scalar abilene_cost_network.node[10].content_store 	xi[10] 	0.01
scalar abilene_cost_network.node[11].core_layer 	interests[11] 	154243
scalar abilene_cost_network.node[11].core_layer 	repo_load[11] 	154243
scalar abilene_cost_network.node[11].core_layer 	data[11] 	0
scalar abilene_cost_network.node[11].content_store 	p_hit[11] 	0
scalar abilene_cost_network.node[11].content_store 	hits[11] 	0
scalar abilene_cost_network.node[11].content_store 	misses[11] 	154243
scalar abilene_cost_network.node[11].content_store 	decision_yes[11] 	0
scalar abilene_cost_network.node[11].content_store 	decision_no[11] 	154243
scalar abilene_cost_network.node[11].content_store 	decision_ratio[11] 	0
scalar abilene_cost_network.node[12].core_layer 	interests[12] 	69822
scalar abilene_cost_network.node[12].core_layer 	repo_load[12] 	69822
scalar abilene_cost_network.node[12].core_layer 	data[12] 	0
scalar abilene_cost_network.node[12].content_store 	p_hit[12] 	0
scalar abilene_cost_network.node[12].content_store 	hits[12] 	0
scalar abilene_cost_network.node[12].content_store 	misses[12] 	69822
scalar abilene_cost_network.node[12].content_store 	decision_yes[12] 	0
scalar abilene_cost_network.node[12].content_store 	decision_no[12] 	69822
scalar abilene_cost_network.node[12].content_store 	decision_ratio[12] 	0
scalar abilene_cost_network.node[13].core_layer 	interests[13] 	74342
scalar abilene_cost_network.node[13].core_layer 	repo_load[13] 	74342
scalar abilene_cost_network.node[13].core_layer 	data[13] 	0
scalar abilene_cost_network.node[13].content_store 	p_hit[13] 	0
scalar abilene_cost_network.node[13].content_store 	hits[13] 	0
scalar abilene_cost_network.node[13].content_store 	misses[13] 	74342
scalar abilene_cost_network.node[13].content_store 	decision_yes[13] 	0
scalar abilene_cost_network.node[13].content_store 	decision_no[13] 	74342
scalar abilene_cost_network.node[13].content_store 	decision_ratio[13] 	0
scalar abilene_cost_network.client[0] 	hdistance[0] 	2.9218470772032
scalar abilene_cost_network.client[0] 	downloads[0] 	177946
scalar abilene_cost_network.client[0] 	avg_time[0] 	0.013474800547
scalar abilene_cost_network.client[0] 	interests_sent[0] 	180228
scalar abilene_cost_network.client[5] 	hdistance[5] 	4.6256155123272
scalar abilene_cost_network.client[5] 	downloads[5] 	176479
scalar abilene_cost_network.client[5] 	avg_time[5] 	0.019133272398
scalar abilene_cost_network.client[5] 	interests_sent[5] 	179880
scalar abilene_cost_network.client[9] 	hdistance[9] 	2.8068738937928
scalar abilene_cost_network.client[9] 	downloads[9] 	176843
scalar abilene_cost_network.client[9] 	avg_time[9] 	0.012467724137
scalar abilene_cost_network.client[9] 	interests_sent[9] 	179304
