version 2
run General-21-20140625-19:41:36-12883
attr D costprobprodcorr0.01
attr F spr
attr R lru
attr a 1
attr configname General
attr csize 1e3
attr ctlg 1e5
attr datetime 20140625-19:41:36
attr experiment General
attr inifile omnetpp.ini
attr iterationvars "$net=abilene_cost, $rep=1, $priceratiovalue=10, $weights=0.333_0.333_0.334, $lambda=100, $a=1, $ctlg=1e5, $F=spr, $ttl=1000, $D=costprobprodcorr0.01, $xi=3, $R=lru, $csize=1e3, $pricebits=0, $mytime=1800"
attr iterationvars2 "$net=abilene_cost, $rep=1, $priceratiovalue=10, $weights=0.333_0.333_0.334, $lambda=100, $a=1, $ctlg=1e5, $F=spr, $ttl=1000, $D=costprobprodcorr0.01, $xi=3, $R=lru, $csize=1e3, $pricebits=0, $mytime=1800, $repetition=0"
attr lambda 100
attr measurement "$net=abilene_cost, $rep=1, $priceratiovalue=10, $weights=0.333_0.333_0.334, $lambda=100, $a=1, $ctlg=1e5, $F=spr, $ttl=1000, $D=costprobprodcorr0.01, $xi=3, $R=lru, $csize=1e3, $pricebits=0, $mytime=1800"
attr mytime 1800
attr net abilene_cost
attr network "networks.${net=geant_cost, abilene_cost}_network"
attr pricebits 0
attr priceratiovalue 10
attr processid 12883
attr rep 1
attr repetition 0
attr replication #0
attr resultdir results
attr runnumber 21
attr seedset 1
attr ttl 1000
attr weights 0.333_0.333_0.334
attr xi 3

scalar . 	a 	1
scalar . 	csize 	1e3
scalar . 	ctlg 	1e5
scalar . 	lambda 	100
scalar . 	mytime 	1800
scalar . 	pricebits 	0
scalar . 	priceratiovalue 	10
scalar . 	rep 	1
scalar . 	ttl 	1000
scalar . 	xi 	3
scalar abilene_cost_network.content_distribution 	repo-0 	11
scalar abilene_cost_network.content_distribution 	repo-1 	12
scalar abilene_cost_network.content_distribution 	repo-2 	13
scalar abilene_cost_network.content_distribution 	client-0 	5
scalar abilene_cost_network.content_distribution 	client-1 	0
scalar abilene_cost_network.content_distribution 	client-2 	9
scalar abilene_cost_network.content_distribution 	repo-0_card 	33396
scalar abilene_cost_network.content_distribution 	repo-1_card 	33039
scalar abilene_cost_network.content_distribution 	repo-2_card 	33565
scalar abilene_cost_network.statistics 	repo_popularity[0] 	0.28686251265602
scalar abilene_cost_network.statistics 	repo_popularity[1] 	0.2886063426465
scalar abilene_cost_network.statistics 	repo_popularity[2] 	0.42453114469748
scalar abilene_cost_network.statistics 	stabilization_time 	36060
scalar abilene_cost_network.node[1].face$o[4].channel 	price[1] 	0
scalar abilene_cost_network.node[1].face$o[4].channel 	represented_price[1] 	0
scalar abilene_cost_network.node[7].face$o[4].channel 	price[7] 	0
scalar abilene_cost_network.node[7].face$o[4].channel 	represented_price[7] 	0
scalar abilene_cost_network.node[10].face$o[4].channel 	price[10] 	0
scalar abilene_cost_network.node[10].face$o[4].channel 	represented_price[10] 	0
scalar abilene_cost_network.node[11].face$o[1].channel 	price[11] 	0
scalar abilene_cost_network.node[11].face$o[1].channel 	represented_price[11] 	0
scalar abilene_cost_network.node[12].face$o[1].channel 	price[12] 	1
scalar abilene_cost_network.node[12].face$o[1].channel 	represented_price[12] 	1
scalar abilene_cost_network.node[13].face$o[1].channel 	price[13] 	10
scalar abilene_cost_network.node[13].face$o[1].channel 	represented_price[13] 	10
scalar abilene_cost_network.statistics 	p_hit 	0.090510354887999
scalar abilene_cost_network.statistics 	interests 	145524.78571429
scalar abilene_cost_network.statistics 	data 	107021.35714286
scalar abilene_cost_network.statistics 	hdistance 	3.4749108752084
scalar abilene_cost_network.statistics 	avg_time 	0.013883176167
scalar abilene_cost_network.statistics 	downloads 	531531
scalar abilene_cost_network.statistics 	total_cost 	958056
scalar abilene_cost_network.statistics 	total_replicas 	100000
scalar abilene_cost_network.statistics 	inner_hit 	0.34692614353631
scalar abilene_cost_network.statistics 	interests_sent 	539051
scalar abilene_cost_network.node[0].core_layer 	interests[0] 	179784
scalar abilene_cost_network.node[0].core_layer 	data[0] 	162202
scalar abilene_cost_network.node[0].core_layer 	repo_int[0] 	347129
scalar abilene_cost_network.node[0].content_store 	p_hit[0] 	0.086381435500378
scalar abilene_cost_network.node[0].content_store 	hits[0] 	15530
scalar abilene_cost_network.node[0].content_store 	misses[0] 	164254
scalar abilene_cost_network.node[0].content_store 	decision_yes[0] 	961
scalar abilene_cost_network.node[0].content_store 	decision_no[0] 	161241
scalar abilene_cost_network.node[0].content_store 	decision_ratio[0] 	0.0059247111626244
scalar abilene_cost_network.node[0].content_store 	correction_factor[0] 	2.9910299013259e-05
scalar abilene_cost_network.node[0].content_store 	xi[0] 	3
scalar abilene_cost_network.node[1].core_layer 	interests[1] 	268232
scalar abilene_cost_network.node[1].core_layer 	data[1] 	183592
scalar abilene_cost_network.node[1].content_store 	p_hit[1] 	0.31554773479674
scalar abilene_cost_network.node[1].content_store 	hits[1] 	84640
scalar abilene_cost_network.node[1].content_store 	misses[1] 	183592
scalar abilene_cost_network.node[1].content_store 	decision_yes[1] 	2482
scalar abilene_cost_network.node[1].content_store 	decision_no[1] 	181110
scalar abilene_cost_network.node[1].content_store 	decision_ratio[1] 	0.013519107586387
scalar abilene_cost_network.node[1].content_store 	correction_factor[1] 	2.9910299013259e-05
scalar abilene_cost_network.node[1].content_store 	xi[1] 	3
scalar abilene_cost_network.node[2].core_layer 	interests[2] 	158436
scalar abilene_cost_network.node[2].core_layer 	data[2] 	144762
scalar abilene_cost_network.node[2].content_store 	p_hit[2] 	0.086306142543361
scalar abilene_cost_network.node[2].content_store 	hits[2] 	13674
scalar abilene_cost_network.node[2].content_store 	misses[2] 	144762
scalar abilene_cost_network.node[2].content_store 	decision_yes[2] 	778
scalar abilene_cost_network.node[2].content_store 	decision_no[2] 	143984
scalar abilene_cost_network.node[2].content_store 	decision_ratio[2] 	0.0053743385695141
scalar abilene_cost_network.node[2].content_store 	correction_factor[2] 	2.9910299013259e-05
scalar abilene_cost_network.node[2].content_store 	xi[2] 	3
scalar abilene_cost_network.node[3].core_layer 	interests[3] 	164782
scalar abilene_cost_network.node[3].core_layer 	data[3] 	151341
scalar abilene_cost_network.node[3].content_store 	p_hit[3] 	0.08157444381061
scalar abilene_cost_network.node[3].content_store 	hits[3] 	13442
scalar abilene_cost_network.node[3].content_store 	misses[3] 	151340
scalar abilene_cost_network.node[3].content_store 	decision_yes[3] 	724
scalar abilene_cost_network.node[3].content_store 	decision_no[3] 	150617
scalar abilene_cost_network.node[3].content_store 	decision_ratio[3] 	0.0047838986130659
scalar abilene_cost_network.node[3].content_store 	correction_factor[3] 	2.9910299013259e-05
scalar abilene_cost_network.node[3].content_store 	xi[3] 	3
scalar abilene_cost_network.node[4].core_layer 	interests[4] 	120198
scalar abilene_cost_network.node[4].core_layer 	data[4] 	117698
scalar abilene_cost_network.node[4].content_store 	p_hit[4] 	0.020807334564635
scalar abilene_cost_network.node[4].content_store 	hits[4] 	2501
scalar abilene_cost_network.node[4].content_store 	misses[4] 	117697
scalar abilene_cost_network.node[4].content_store 	decision_yes[4] 	743
scalar abilene_cost_network.node[4].content_store 	decision_no[4] 	116955
scalar abilene_cost_network.node[4].content_store 	decision_ratio[4] 	0.0063127665720743
scalar abilene_cost_network.node[4].content_store 	correction_factor[4] 	2.9910299013259e-05
scalar abilene_cost_network.node[4].content_store 	xi[4] 	3
scalar abilene_cost_network.node[5].core_layer 	interests[5] 	179450
scalar abilene_cost_network.node[5].core_layer 	data[5] 	168655
scalar abilene_cost_network.node[5].content_store 	p_hit[5] 	0.042229033156868
scalar abilene_cost_network.node[5].content_store 	hits[5] 	7578
scalar abilene_cost_network.node[5].content_store 	misses[5] 	171872
scalar abilene_cost_network.node[5].content_store 	decision_yes[5] 	769
scalar abilene_cost_network.node[5].content_store 	decision_no[5] 	167886
scalar abilene_cost_network.node[5].content_store 	decision_ratio[5] 	0.0045596039251727
scalar abilene_cost_network.node[5].content_store 	correction_factor[5] 	2.9910299013259e-05
scalar abilene_cost_network.node[5].content_store 	xi[5] 	3
scalar abilene_cost_network.node[6].core_layer 	interests[6] 	48456
scalar abilene_cost_network.node[6].core_layer 	data[6] 	40822
scalar abilene_cost_network.node[6].content_store 	p_hit[6] 	0.15754498926861
scalar abilene_cost_network.node[6].content_store 	hits[6] 	7634
scalar abilene_cost_network.node[6].content_store 	misses[6] 	40822
scalar abilene_cost_network.node[6].content_store 	decision_yes[6] 	2
scalar abilene_cost_network.node[6].content_store 	decision_no[6] 	40820
scalar abilene_cost_network.node[6].content_store 	decision_ratio[6] 	4.8993189946597e-05
scalar abilene_cost_network.node[6].content_store 	correction_factor[6] 	2.9910299013259e-05
scalar abilene_cost_network.node[6].content_store 	xi[6] 	3
scalar abilene_cost_network.node[7].core_layer 	interests[7] 	122828
scalar abilene_cost_network.node[7].core_layer 	data[7] 	108946
scalar abilene_cost_network.node[7].content_store 	p_hit[7] 	0.11301983261146
scalar abilene_cost_network.node[7].content_store 	hits[7] 	13882
scalar abilene_cost_network.node[7].content_store 	misses[7] 	108946
scalar abilene_cost_network.node[7].content_store 	decision_yes[7] 	4
scalar abilene_cost_network.node[7].content_store 	decision_no[7] 	108942
scalar abilene_cost_network.node[7].content_store 	decision_ratio[7] 	3.6715437005489e-05
scalar abilene_cost_network.node[7].content_store 	correction_factor[7] 	2.9910299013259e-05
scalar abilene_cost_network.node[7].content_store 	xi[7] 	3
scalar abilene_cost_network.node[8].core_layer 	interests[8] 	48048
scalar abilene_cost_network.node[8].core_layer 	data[8] 	41242
scalar abilene_cost_network.node[8].content_store 	p_hit[8] 	0.14165001665002
scalar abilene_cost_network.node[8].content_store 	hits[8] 	6806
scalar abilene_cost_network.node[8].content_store 	misses[8] 	41242
scalar abilene_cost_network.node[8].content_store 	decision_yes[8] 	0
scalar abilene_cost_network.node[8].content_store 	decision_no[8] 	41242
scalar abilene_cost_network.node[8].content_store 	decision_ratio[8] 	0
scalar abilene_cost_network.node[8].content_store 	correction_factor[8] 	2.9910299013259e-05
scalar abilene_cost_network.node[8].content_store 	xi[8] 	3
scalar abilene_cost_network.node[9].core_layer 	interests[9] 	179817
scalar abilene_cost_network.node[9].core_layer 	data[9] 	166311
scalar abilene_cost_network.node[9].content_store 	p_hit[9] 	0.062591412380364
scalar abilene_cost_network.node[9].content_store 	hits[9] 	11255
scalar abilene_cost_network.node[9].content_store 	misses[9] 	168562
scalar abilene_cost_network.node[9].content_store 	decision_yes[9] 	843
scalar abilene_cost_network.node[9].content_store 	decision_no[9] 	165468
scalar abilene_cost_network.node[9].content_store 	decision_ratio[9] 	0.0050688168551689
scalar abilene_cost_network.node[9].content_store 	correction_factor[9] 	2.9910299013259e-05
scalar abilene_cost_network.node[9].content_store 	xi[9] 	3
scalar abilene_cost_network.node[10].core_layer 	interests[10] 	220187
scalar abilene_cost_network.node[10].core_layer 	data[10] 	212728
scalar abilene_cost_network.node[10].content_store 	p_hit[10] 	0.033875751066139
scalar abilene_cost_network.node[10].content_store 	hits[10] 	7459
scalar abilene_cost_network.node[10].content_store 	misses[10] 	212728
scalar abilene_cost_network.node[10].content_store 	decision_yes[10] 	831
scalar abilene_cost_network.node[10].content_store 	decision_no[10] 	211897
scalar abilene_cost_network.node[10].content_store 	decision_ratio[10] 	0.0039063969012072
scalar abilene_cost_network.node[10].content_store 	correction_factor[10] 	2.9910299013259e-05
scalar abilene_cost_network.node[10].content_store 	xi[10] 	3
scalar abilene_cost_network.node[11].core_layer 	interests[11] 	153272
scalar abilene_cost_network.node[11].core_layer 	repo_load[11] 	153272
scalar abilene_cost_network.node[11].core_layer 	data[11] 	0
scalar abilene_cost_network.node[11].content_store 	p_hit[11] 	0
scalar abilene_cost_network.node[11].content_store 	hits[11] 	0
scalar abilene_cost_network.node[11].content_store 	misses[11] 	153272
scalar abilene_cost_network.node[11].content_store 	decision_yes[11] 	0
scalar abilene_cost_network.node[11].content_store 	decision_no[11] 	153272
scalar abilene_cost_network.node[11].content_store 	decision_ratio[11] 	0
scalar abilene_cost_network.node[12].core_layer 	interests[12] 	108946
scalar abilene_cost_network.node[12].core_layer 	repo_load[12] 	108946
scalar abilene_cost_network.node[12].core_layer 	data[12] 	0
scalar abilene_cost_network.node[12].content_store 	p_hit[12] 	0
scalar abilene_cost_network.node[12].content_store 	hits[12] 	0
scalar abilene_cost_network.node[12].content_store 	misses[12] 	108946
scalar abilene_cost_network.node[12].content_store 	decision_yes[12] 	0
scalar abilene_cost_network.node[12].content_store 	decision_no[12] 	108946
scalar abilene_cost_network.node[12].content_store 	decision_ratio[12] 	0
scalar abilene_cost_network.node[13].core_layer 	interests[13] 	84911
scalar abilene_cost_network.node[13].core_layer 	repo_load[13] 	84911
scalar abilene_cost_network.node[13].core_layer 	data[13] 	0
scalar abilene_cost_network.node[13].content_store 	p_hit[13] 	0
scalar abilene_cost_network.node[13].content_store 	hits[13] 	0
scalar abilene_cost_network.node[13].content_store 	misses[13] 	84911
scalar abilene_cost_network.node[13].content_store 	decision_yes[13] 	0
scalar abilene_cost_network.node[13].content_store 	decision_no[13] 	84911
scalar abilene_cost_network.node[13].content_store 	decision_ratio[13] 	0
scalar abilene_cost_network.client[0] 	hdistance[0] 	3.0011646749037
scalar abilene_cost_network.client[0] 	downloads[0] 	177732
scalar abilene_cost_network.client[0] 	avg_time[0] 	0.01291131728
scalar abilene_cost_network.client[0] 	interests_sent[0] 	179784
scalar abilene_cost_network.client[5] 	hdistance[5] 	4.6093523914363
scalar abilene_cost_network.client[5] 	downloads[5] 	176233
scalar abilene_cost_network.client[5] 	avg_time[5] 	0.017460867638
scalar abilene_cost_network.client[5] 	interests_sent[5] 	179450
scalar abilene_cost_network.client[9] 	hdistance[9] 	2.814215559285
scalar abilene_cost_network.client[9] 	downloads[9] 	177566
scalar abilene_cost_network.client[9] 	avg_time[9] 	0.011277343583
scalar abilene_cost_network.client[9] 	interests_sent[9] 	179817
