version 2
run General-2642-20140502-06:08:20-11598
attr D costprob0.5
attr F nrr
attr R lru
attr a 1
attr configname General
attr csize 1e3
attr ctlg 1e5
attr datetime 20140502-06:08:20
attr experiment General
attr inifile omnetpp.ini
attr iterationvars "$net=three_caches_scenario_3_links, $rep=5, $priceratiovalue=5, $weights=0.2_0.4_0.4, $a=1, $ctlg=1e5, $F=nrr, $ttl=1000, $D=costprob0.5, $xi=1, $R=lru, $csize=1e3"
attr iterationvars2 "$net=three_caches_scenario_3_links, $rep=5, $priceratiovalue=5, $weights=0.2_0.4_0.4, $a=1, $ctlg=1e5, $F=nrr, $ttl=1000, $D=costprob0.5, $xi=1, $R=lru, $csize=1e3, $repetition=0"
attr measurement "$net=three_caches_scenario_3_links, $rep=5, $priceratiovalue=5, $weights=0.2_0.4_0.4, $a=1, $ctlg=1e5, $F=nrr, $ttl=1000, $D=costprob0.5, $xi=1, $R=lru, $csize=1e3"
attr net three_caches_scenario_3_links
attr network networks.${net=three_caches_scenario_3_links}_network
attr priceratiovalue 5
attr processid 11598
attr rep 5
attr repetition 0
attr replication #0
attr resultdir results
attr runnumber 2642
attr seedset 5
attr ttl 1000
attr weights 0.2_0.4_0.4
attr xi 1

scalar . 	a 	1
scalar . 	csize 	1e3
scalar . 	ctlg 	1e5
scalar . 	priceratiovalue 	5
scalar . 	rep 	5
scalar . 	ttl 	1000
scalar . 	xi 	1
scalar three_caches_scenario_3_links_network.content_distribution 	repo-0 	4
scalar three_caches_scenario_3_links_network.content_distribution 	repo-1 	5
scalar three_caches_scenario_3_links_network.content_distribution 	repo-2 	6
scalar three_caches_scenario_3_links_network.content_distribution 	client-0 	0
scalar three_caches_scenario_3_links_network.content_distribution 	repo-0_card 	19937
scalar three_caches_scenario_3_links_network.content_distribution 	repo-1_card 	40032
scalar three_caches_scenario_3_links_network.content_distribution 	repo-2_card 	40031
scalar three_caches_scenario_3_links_network.statistics 	p_hit 	0.10947937270878
scalar three_caches_scenario_3_links_network.statistics 	interests 	65506.142857143
scalar three_caches_scenario_3_links_network.statistics 	data 	39700.714285714
scalar three_caches_scenario_3_links_network.statistics 	hdistance 	1.9324173208295
scalar three_caches_scenario_3_links_network.statistics 	avg_time 	0
scalar three_caches_scenario_3_links_network.statistics 	downloads 	180638
scalar three_caches_scenario_3_links_network.statistics 	total_cost 	219923
scalar three_caches_scenario_3_links_network.statistics 	total_replicas 	100000
scalar three_caches_scenario_3_links_network.statistics 	interests_sent 	180638
scalar three_caches_scenario_3_links_network.node[0].core_layer 	interests[0] 	180638
scalar three_caches_scenario_3_links_network.node[0].core_layer 	data[0] 	147468
scalar three_caches_scenario_3_links_network.node[0].core_layer 	repo_int[0] 	130437
scalar three_caches_scenario_3_links_network.node[0].content_store 	p_hit[0] 	0.18362692235299
scalar three_caches_scenario_3_links_network.node[0].content_store 	hits[0] 	33170
scalar three_caches_scenario_3_links_network.node[0].content_store 	misses[0] 	147468
scalar three_caches_scenario_3_links_network.node[0].content_store 	decision_yes[0] 	44241
scalar three_caches_scenario_3_links_network.node[0].content_store 	decision_no[0] 	103227
scalar three_caches_scenario_3_links_network.node[1].core_layer 	interests[1] 	59274
scalar three_caches_scenario_3_links_network.node[1].core_layer 	data[1] 	59274
scalar three_caches_scenario_3_links_network.node[1].content_store 	p_hit[1] 	0
scalar three_caches_scenario_3_links_network.node[1].content_store 	hits[1] 	0
scalar three_caches_scenario_3_links_network.node[1].content_store 	misses[1] 	59274
scalar three_caches_scenario_3_links_network.node[1].content_store 	decision_yes[1] 	0
scalar three_caches_scenario_3_links_network.node[1].content_store 	decision_no[1] 	59274
scalar three_caches_scenario_3_links_network.node[2].core_layer 	interests[2] 	48626
scalar three_caches_scenario_3_links_network.node[2].core_layer 	data[2] 	33973
scalar three_caches_scenario_3_links_network.node[2].content_store 	p_hit[2] 	0.30134084646074
scalar three_caches_scenario_3_links_network.node[2].content_store 	hits[2] 	14653
scalar three_caches_scenario_3_links_network.node[2].content_store 	misses[2] 	33973
scalar three_caches_scenario_3_links_network.node[2].content_store 	decision_yes[2] 	6993
scalar three_caches_scenario_3_links_network.node[2].content_store 	decision_no[2] 	26980
scalar three_caches_scenario_3_links_network.node[3].core_layer 	interests[3] 	39568
scalar three_caches_scenario_3_links_network.node[3].core_layer 	data[3] 	37190
scalar three_caches_scenario_3_links_network.node[3].content_store 	p_hit[3] 	0.06009906995552
scalar three_caches_scenario_3_links_network.node[3].content_store 	hits[3] 	2378
scalar three_caches_scenario_3_links_network.node[3].content_store 	misses[3] 	37190
scalar three_caches_scenario_3_links_network.node[3].content_store 	decision_yes[3] 	37190
scalar three_caches_scenario_3_links_network.node[3].content_store 	decision_no[3] 	0
scalar three_caches_scenario_3_links_network.node[4].core_layer 	interests[4] 	59274
scalar three_caches_scenario_3_links_network.node[4].core_layer 	repo_load[4] 	59274
scalar three_caches_scenario_3_links_network.node[4].core_layer 	data[4] 	0
scalar three_caches_scenario_3_links_network.node[4].content_store 	p_hit[4] 	0
scalar three_caches_scenario_3_links_network.node[4].content_store 	hits[4] 	0
scalar three_caches_scenario_3_links_network.node[4].content_store 	misses[4] 	59274
scalar three_caches_scenario_3_links_network.node[4].content_store 	decision_yes[4] 	0
scalar three_caches_scenario_3_links_network.node[4].content_store 	decision_no[4] 	59274
scalar three_caches_scenario_3_links_network.node[5].core_layer 	interests[5] 	33973
scalar three_caches_scenario_3_links_network.node[5].core_layer 	repo_load[5] 	33973
scalar three_caches_scenario_3_links_network.node[5].core_layer 	data[5] 	0
scalar three_caches_scenario_3_links_network.node[5].content_store 	p_hit[5] 	0
scalar three_caches_scenario_3_links_network.node[5].content_store 	hits[5] 	0
scalar three_caches_scenario_3_links_network.node[5].content_store 	misses[5] 	33973
scalar three_caches_scenario_3_links_network.node[5].content_store 	decision_yes[5] 	0
scalar three_caches_scenario_3_links_network.node[5].content_store 	decision_no[5] 	33973
scalar three_caches_scenario_3_links_network.node[6].core_layer 	interests[6] 	37190
scalar three_caches_scenario_3_links_network.node[6].core_layer 	repo_load[6] 	37190
scalar three_caches_scenario_3_links_network.node[6].core_layer 	data[6] 	0
scalar three_caches_scenario_3_links_network.node[6].content_store 	p_hit[6] 	0
scalar three_caches_scenario_3_links_network.node[6].content_store 	hits[6] 	0
scalar three_caches_scenario_3_links_network.node[6].content_store 	misses[6] 	37190
scalar three_caches_scenario_3_links_network.node[6].content_store 	decision_yes[6] 	0
scalar three_caches_scenario_3_links_network.node[6].content_store 	decision_no[6] 	37190
scalar three_caches_scenario_3_links_network.client[0] 	hdistance[0] 	1.9324173208295
scalar three_caches_scenario_3_links_network.client[0] 	downloads[0] 	180638
scalar three_caches_scenario_3_links_network.client[0] 	avg_time[0] 	0
scalar three_caches_scenario_3_links_network.client[0] 	interests_sent[0] 	180638
