version 2
run General-8-20150615-16:45:19-11002
attr D never
attr F spr
attr R two
attr a 1
attr configname General
attr datetime 20150615-16:45:19
attr experiment General
attr inifile omnetpp.ini
attr iterationvars "$net=abilene, $rep=0, $a=1, $F=spr, $ttl=1000, $D=never, $R=two, $window=60, $variance=0.05, $mytime=1800"
attr iterationvars2 "$net=abilene, $rep=0, $a=1, $F=spr, $ttl=1000, $D=never, $R=two, $window=60, $variance=0.05, $mytime=1800, $repetition=0"
attr measurement "$net=abilene, $rep=0, $a=1, $F=spr, $ttl=1000, $D=never, $R=two, $window=60, $variance=0.05, $mytime=1800"
attr mytime 1800
attr net abilene
attr network networks.${net=abilene}_network
attr processid 11002
attr rep 0
attr repetition 0
attr replication #0
attr resultdir results
attr runnumber 8
attr seedset 0
attr ttl 1000
attr variance 0.05
attr window 60

scalar . 	a 	1
scalar . 	mytime 	1800
scalar . 	rep 	0
scalar . 	ttl 	1000
scalar . 	variance 	0.05
scalar . 	window 	60
scalar abilene_network.content_distribution 	repo-0 	5
scalar abilene_network.content_distribution 	client-0 	8
scalar abilene_network.content_distribution 	client-1 	9
scalar abilene_network.content_distribution 	client-2 	5
scalar abilene_network.content_distribution 	client-3 	0
scalar abilene_network.content_distribution 	client-4 	1
scalar abilene_network.content_distribution 	client-5 	7
scalar abilene_network.content_distribution 	client-6 	6
scalar abilene_network.content_distribution 	client-7 	2
scalar abilene_network.content_distribution 	client-8 	4
scalar abilene_network.content_distribution 	client-9 	10
scalar abilene_network.content_distribution 	client-10 	3
scalar abilene_network.content_distribution 	repo-0_card 	1000
scalar abilene_network.content_distribution 	repo-0_price 	0
scalar abilene_network.statistics 	p_hit 	0
scalar abilene_network.statistics 	interests 	7299630
scalar abilene_network.statistics 	data 	5170344.1818182
scalar abilene_network.statistics 	hdistance 	3.7272727272727
scalar abilene_network.statistics 	avg_time 	0.01453043678
scalar abilene_network.statistics 	downloads 	22613987
scalar abilene_network.statistics 	total_cost 	0
scalar abilene_network.statistics 	total_replicas 	1000
scalar abilene_network.statistics 	inner_hit 	0.06808998342486
scalar abilene_network.statistics 	interests_sent 	23422114
scalar abilene_network.node[0].core_layer 	interests[0] 	2129684
scalar abilene_network.node[0].core_layer 	data[0] 	1990854
scalar abilene_network.node[0].core_layer 	megabytes_sent[face$o[0]->client[0]] 	0
scalar abilene_network.node[0].core_layer 	megabytes_sent[face$o[1]->node[1]] 	0
scalar abilene_network.node[0].core_layer 	megabytes_sent[face$o[2]->node[10]] 	0
scalar abilene_network.node[0].content_store 	p_hit[0] 	0
scalar abilene_network.node[0].content_store 	hits[0] 	0
scalar abilene_network.node[0].content_store 	misses[0] 	2129684
scalar abilene_network.node[0].content_store 	decision_yes[0] 	0
scalar abilene_network.node[0].content_store 	decision_no[0] 	1990854
scalar abilene_network.node[0].content_store 	decision_ratio[0] 	0
scalar abilene_network.node[1].core_layer 	interests[1] 	6115043
scalar abilene_network.node[1].core_layer 	data[1] 	5607778
scalar abilene_network.node[1].core_layer 	megabytes_sent[face$o[0]->client[1]] 	0
scalar abilene_network.node[1].core_layer 	megabytes_sent[face$o[1]->node[0]] 	0
scalar abilene_network.node[1].core_layer 	megabytes_sent[face$o[2]->node[10]] 	0
scalar abilene_network.node[1].core_layer 	megabytes_sent[face$o[3]->node[2]] 	0
scalar abilene_network.node[1].content_store 	p_hit[1] 	0
scalar abilene_network.node[1].content_store 	hits[1] 	0
scalar abilene_network.node[1].content_store 	misses[1] 	6115043
scalar abilene_network.node[1].content_store 	decision_yes[1] 	0
scalar abilene_network.node[1].content_store 	decision_no[1] 	5607778
scalar abilene_network.node[1].content_store 	decision_ratio[1] 	0
scalar abilene_network.node[2].core_layer 	interests[2] 	7736971
scalar abilene_network.node[2].core_layer 	data[2] 	7384763
scalar abilene_network.node[2].core_layer 	megabytes_sent[face$o[0]->client[2]] 	0
scalar abilene_network.node[2].core_layer 	megabytes_sent[face$o[1]->node[1]] 	0
scalar abilene_network.node[2].core_layer 	megabytes_sent[face$o[2]->node[3]] 	0
scalar abilene_network.node[2].core_layer 	megabytes_sent[face$o[3]->node[8]] 	0
scalar abilene_network.node[2].content_store 	p_hit[2] 	0
scalar abilene_network.node[2].content_store 	hits[2] 	0
scalar abilene_network.node[2].content_store 	misses[2] 	7736971
scalar abilene_network.node[2].content_store 	decision_yes[2] 	0
scalar abilene_network.node[2].content_store 	decision_no[2] 	7384763
scalar abilene_network.node[2].content_store 	decision_ratio[2] 	0
scalar abilene_network.node[3].core_layer 	interests[3] 	9513987
scalar abilene_network.node[3].core_layer 	data[3] 	9211792
scalar abilene_network.node[3].core_layer 	megabytes_sent[face$o[0]->client[3]] 	0
scalar abilene_network.node[3].core_layer 	megabytes_sent[face$o[1]->node[2]] 	0
scalar abilene_network.node[3].core_layer 	megabytes_sent[face$o[2]->node[4]] 	0
scalar abilene_network.node[3].core_layer 	megabytes_sent[face$o[3]->node[7]] 	0
scalar abilene_network.node[3].content_store 	p_hit[3] 	0
scalar abilene_network.node[3].content_store 	hits[3] 	0
scalar abilene_network.node[3].content_store 	misses[3] 	9513987
scalar abilene_network.node[3].content_store 	decision_yes[3] 	0
scalar abilene_network.node[3].content_store 	decision_no[3] 	9211792
scalar abilene_network.node[3].content_store 	decision_ratio[3] 	0
scalar abilene_network.node[4].core_layer 	interests[4] 	11341667
scalar abilene_network.node[4].core_layer 	data[4] 	11036777
scalar abilene_network.node[4].core_layer 	megabytes_sent[face$o[0]->client[4]] 	0
scalar abilene_network.node[4].core_layer 	megabytes_sent[face$o[1]->node[3]] 	0
scalar abilene_network.node[4].core_layer 	megabytes_sent[face$o[2]->node[5]] 	0
scalar abilene_network.node[4].content_store 	p_hit[4] 	0
scalar abilene_network.node[4].content_store 	hits[4] 	0
scalar abilene_network.node[4].content_store 	misses[4] 	11341667
scalar abilene_network.node[4].content_store 	decision_yes[4] 	0
scalar abilene_network.node[4].content_store 	decision_no[4] 	11036777
scalar abilene_network.node[4].content_store 	decision_ratio[4] 	0
scalar abilene_network.node[5].core_layer 	interests[5] 	21074201
scalar abilene_network.node[5].core_layer 	repo_load[5] 	21074201
scalar abilene_network.node[5].core_layer 	data[5] 	0
scalar abilene_network.node[5].core_layer 	megabytes_sent[face$o[0]->client[5]] 	0
scalar abilene_network.node[5].core_layer 	megabytes_sent[face$o[1]->node[4]] 	0
scalar abilene_network.node[5].core_layer 	megabytes_sent[face$o[2]->node[6]] 	0
scalar abilene_network.node[5].content_store 	p_hit[5] 	0
scalar abilene_network.node[5].content_store 	hits[5] 	0
scalar abilene_network.node[5].content_store 	misses[5] 	21074201
scalar abilene_network.node[5].content_store 	decision_yes[5] 	0
scalar abilene_network.node[5].content_store 	decision_no[5] 	21074201
scalar abilene_network.node[5].content_store 	decision_ratio[5] 	0
scalar abilene_network.node[6].core_layer 	interests[6] 	7980099
scalar abilene_network.node[6].core_layer 	data[6] 	7907491
scalar abilene_network.node[6].core_layer 	megabytes_sent[face$o[0]->client[6]] 	0
scalar abilene_network.node[6].core_layer 	megabytes_sent[face$o[1]->node[5]] 	0
scalar abilene_network.node[6].core_layer 	megabytes_sent[face$o[2]->node[7]] 	0
scalar abilene_network.node[6].content_store 	p_hit[6] 	0
scalar abilene_network.node[6].content_store 	hits[6] 	0
scalar abilene_network.node[6].content_store 	misses[6] 	7980099
scalar abilene_network.node[6].content_store 	decision_yes[6] 	0
scalar abilene_network.node[6].content_store 	decision_no[6] 	7907491
scalar abilene_network.node[6].content_store 	decision_ratio[6] 	0
scalar abilene_network.node[7].core_layer 	interests[7] 	6032914
scalar abilene_network.node[7].core_layer 	data[7] 	5851649
scalar abilene_network.node[7].core_layer 	megabytes_sent[face$o[0]->client[7]] 	0
scalar abilene_network.node[7].core_layer 	megabytes_sent[face$o[1]->node[3]] 	0
scalar abilene_network.node[7].core_layer 	megabytes_sent[face$o[2]->node[6]] 	0
scalar abilene_network.node[7].core_layer 	megabytes_sent[face$o[3]->node[8]] 	0
scalar abilene_network.node[7].content_store 	p_hit[7] 	0
scalar abilene_network.node[7].content_store 	hits[7] 	0
scalar abilene_network.node[7].content_store 	misses[7] 	6032914
scalar abilene_network.node[7].content_store 	decision_yes[7] 	0
scalar abilene_network.node[7].content_store 	decision_no[7] 	5851649
scalar abilene_network.node[7].content_store 	decision_ratio[7] 	0
scalar abilene_network.node[8].core_layer 	interests[8] 	4112695
scalar abilene_network.node[8].core_layer 	data[8] 	3903864
scalar abilene_network.node[8].core_layer 	megabytes_sent[face$o[0]->client[8]] 	0
scalar abilene_network.node[8].core_layer 	megabytes_sent[face$o[1]->node[2]] 	0
scalar abilene_network.node[8].core_layer 	megabytes_sent[face$o[2]->node[7]] 	0
scalar abilene_network.node[8].core_layer 	megabytes_sent[face$o[3]->node[9]] 	0
scalar abilene_network.node[8].content_store 	p_hit[8] 	0
scalar abilene_network.node[8].content_store 	hits[8] 	0
scalar abilene_network.node[8].content_store 	misses[8] 	4112695
scalar abilene_network.node[8].content_store 	decision_yes[8] 	0
scalar abilene_network.node[8].content_store 	decision_no[8] 	3903864
scalar abilene_network.node[8].content_store 	decision_ratio[8] 	0
scalar abilene_network.node[9].core_layer 	interests[9] 	2129521
scalar abilene_network.node[9].core_layer 	data[9] 	1985102
scalar abilene_network.node[9].core_layer 	megabytes_sent[face$o[0]->client[9]] 	0
scalar abilene_network.node[9].core_layer 	megabytes_sent[face$o[1]->node[10]] 	0
scalar abilene_network.node[9].core_layer 	megabytes_sent[face$o[2]->node[8]] 	0
scalar abilene_network.node[9].content_store 	p_hit[9] 	0
scalar abilene_network.node[9].content_store 	hits[9] 	0
scalar abilene_network.node[9].content_store 	misses[9] 	2129521
scalar abilene_network.node[9].content_store 	decision_yes[9] 	0
scalar abilene_network.node[9].content_store 	decision_no[9] 	1985102
scalar abilene_network.node[9].content_store 	decision_ratio[9] 	0
scalar abilene_network.node[10].core_layer 	interests[10] 	2129148
scalar abilene_network.node[10].core_layer 	data[10] 	1993716
scalar abilene_network.node[10].core_layer 	megabytes_sent[face$o[0]->client[10]] 	0
scalar abilene_network.node[10].core_layer 	megabytes_sent[face$o[1]->node[0]] 	0
scalar abilene_network.node[10].core_layer 	megabytes_sent[face$o[2]->node[1]] 	0
scalar abilene_network.node[10].core_layer 	megabytes_sent[face$o[3]->node[9]] 	0
scalar abilene_network.node[10].content_store 	p_hit[10] 	0
scalar abilene_network.node[10].content_store 	hits[10] 	0
scalar abilene_network.node[10].content_store 	misses[10] 	2129148
scalar abilene_network.node[10].content_store 	decision_yes[10] 	0
scalar abilene_network.node[10].content_store 	decision_no[10] 	1993716
scalar abilene_network.node[10].content_store 	decision_ratio[10] 	0
scalar abilene_network.client[0] 	hdistance[0] 	6
scalar abilene_network.client[0] 	downloads[0] 	1990854
scalar abilene_network.client[0] 	avg_time[0] 	0.029162694926
scalar abilene_network.client[0] 	interests_sent[0] 	2129684
scalar abilene_network.client[1] 	hdistance[1] 	5
scalar abilene_network.client[1] 	downloads[1] 	2037572
scalar abilene_network.client[1] 	avg_time[1] 	0.018827575866
scalar abilene_network.client[1] 	interests_sent[1] 	2130466
scalar abilene_network.client[2] 	hdistance[2] 	4
scalar abilene_network.client[2] 	downloads[2] 	2059724
scalar abilene_network.client[2] 	avg_time[2] 	0.013409766856
scalar abilene_network.client[2] 	interests_sent[2] 	2129189
scalar abilene_network.client[3] 	hdistance[3] 	3
scalar abilene_network.client[3] 	downloads[3] 	2080595
scalar abilene_network.client[3] 	avg_time[3] 	0.008958523473
scalar abilene_network.client[3] 	interests_sent[3] 	2129222
scalar abilene_network.client[4] 	hdistance[4] 	2
scalar abilene_network.client[4] 	downloads[4] 	2089027
scalar abilene_network.client[4] 	avg_time[4] 	0.00732927736
scalar abilene_network.client[4] 	interests_sent[4] 	2129872
scalar abilene_network.client[5] 	hdistance[5] 	1
scalar abilene_network.client[5] 	downloads[5] 	2129929
scalar abilene_network.client[5] 	avg_time[5] 	0
scalar abilene_network.client[5] 	interests_sent[5] 	2129929
scalar abilene_network.client[6] 	hdistance[6] 	2
scalar abilene_network.client[6] 	downloads[6] 	2115322
scalar abilene_network.client[6] 	avg_time[6] 	0.002177356908
scalar abilene_network.client[6] 	interests_sent[6] 	2128446
scalar abilene_network.client[7] 	hdistance[7] 	3
scalar abilene_network.client[7] 	downloads[7] 	2084648
scalar abilene_network.client[7] 	avg_time[7] 	0.007802463832
scalar abilene_network.client[7] 	interests_sent[7] 	2129047
scalar abilene_network.client[8] 	hdistance[8] 	4
scalar abilene_network.client[8] 	downloads[8] 	2047498
scalar abilene_network.client[8] 	avg_time[8] 	0.014958278355
scalar abilene_network.client[8] 	interests_sent[8] 	2127590
scalar abilene_network.client[9] 	hdistance[9] 	5
scalar abilene_network.client[9] 	downloads[9] 	1985102
scalar abilene_network.client[9] 	avg_time[9] 	0.028911872878
scalar abilene_network.client[9] 	interests_sent[9] 	2129521
scalar abilene_network.client[10] 	hdistance[10] 	6
scalar abilene_network.client[10] 	downloads[10] 	1993716
scalar abilene_network.client[10] 	avg_time[10] 	0.028296994129
scalar abilene_network.client[10] 	interests_sent[10] 	2129148
