version 2
run General-1639-20140502-04:12:52-10562
attr D fix0.05
attr F nrr
attr R lru
attr a 1
attr configname General
attr csize 1e3
attr ctlg 1e5
attr datetime 20140502-04:12:52
attr experiment General
attr inifile omnetpp.ini
attr iterationvars "$net=three_caches_scenario_3_links, $rep=3, $priceratiovalue=10, $weights=0.2_0.4_0.4, $a=1, $ctlg=1e5, $F=nrr, $ttl=1000, $D=fix0.05, $xi=1, $R=lru, $csize=1e3"
attr iterationvars2 "$net=three_caches_scenario_3_links, $rep=3, $priceratiovalue=10, $weights=0.2_0.4_0.4, $a=1, $ctlg=1e5, $F=nrr, $ttl=1000, $D=fix0.05, $xi=1, $R=lru, $csize=1e3, $repetition=0"
attr measurement "$net=three_caches_scenario_3_links, $rep=3, $priceratiovalue=10, $weights=0.2_0.4_0.4, $a=1, $ctlg=1e5, $F=nrr, $ttl=1000, $D=fix0.05, $xi=1, $R=lru, $csize=1e3"
attr net three_caches_scenario_3_links
attr network networks.${net=three_caches_scenario_3_links}_network
attr priceratiovalue 10
attr processid 10562
attr rep 3
attr repetition 0
attr replication #0
attr resultdir results
attr runnumber 1639
attr seedset 3
attr ttl 1000
attr weights 0.2_0.4_0.4
attr xi 1

scalar . 	a 	1
scalar . 	csize 	1e3
scalar . 	ctlg 	1e5
scalar . 	priceratiovalue 	10
scalar . 	rep 	3
scalar . 	ttl 	1000
scalar . 	xi 	1
scalar three_caches_scenario_3_links_network.content_distribution 	repo-0 	4
scalar three_caches_scenario_3_links_network.content_distribution 	repo-1 	5
scalar three_caches_scenario_3_links_network.content_distribution 	repo-2 	6
scalar three_caches_scenario_3_links_network.content_distribution 	client-0 	0
scalar three_caches_scenario_3_links_network.content_distribution 	repo-0_card 	20144
scalar three_caches_scenario_3_links_network.content_distribution 	repo-1_card 	39732
scalar three_caches_scenario_3_links_network.content_distribution 	repo-2_card 	40124
scalar three_caches_scenario_3_links_network.statistics 	p_hit 	0.27276861151188
scalar three_caches_scenario_3_links_network.statistics 	interests 	50894
scalar three_caches_scenario_3_links_network.statistics 	data 	25233.571428571
scalar three_caches_scenario_3_links_network.statistics 	hdistance 	1.3378910273183
scalar three_caches_scenario_3_links_network.statistics 	avg_time 	0
scalar three_caches_scenario_3_links_network.statistics 	downloads 	179623
scalar three_caches_scenario_3_links_network.statistics 	total_cost 	351132
scalar three_caches_scenario_3_links_network.statistics 	total_replicas 	100000
scalar three_caches_scenario_3_links_network.statistics 	interests_sent 	179623
scalar three_caches_scenario_3_links_network.node[0].core_layer 	interests[0] 	179623
scalar three_caches_scenario_3_links_network.node[0].core_layer 	data[0] 	94188
scalar three_caches_scenario_3_links_network.node[0].core_layer 	repo_int[0] 	82447
scalar three_caches_scenario_3_links_network.node[0].content_store 	p_hit[0] 	0.47563508014007
scalar three_caches_scenario_3_links_network.node[0].content_store 	hits[0] 	85435
scalar three_caches_scenario_3_links_network.node[0].content_store 	misses[0] 	94188
scalar three_caches_scenario_3_links_network.node[0].content_store 	decision_yes[0] 	4868
scalar three_caches_scenario_3_links_network.node[0].content_store 	decision_no[0] 	89320
scalar three_caches_scenario_3_links_network.node[1].core_layer 	interests[1] 	18766
scalar three_caches_scenario_3_links_network.node[1].core_layer 	data[1] 	18766
scalar three_caches_scenario_3_links_network.node[1].content_store 	p_hit[1] 	0
scalar three_caches_scenario_3_links_network.node[1].content_store 	hits[1] 	0
scalar three_caches_scenario_3_links_network.node[1].content_store 	misses[1] 	18766
scalar three_caches_scenario_3_links_network.node[1].content_store 	decision_yes[1] 	0
scalar three_caches_scenario_3_links_network.node[1].content_store 	decision_no[1] 	18766
scalar three_caches_scenario_3_links_network.node[2].core_layer 	interests[2] 	37673
scalar three_caches_scenario_3_links_network.node[2].core_layer 	data[2] 	31742
scalar three_caches_scenario_3_links_network.node[2].content_store 	p_hit[2] 	0.15743370583707
scalar three_caches_scenario_3_links_network.node[2].content_store 	hits[2] 	5931
scalar three_caches_scenario_3_links_network.node[2].content_store 	misses[2] 	31742
scalar three_caches_scenario_3_links_network.node[2].content_store 	decision_yes[2] 	1613
scalar three_caches_scenario_3_links_network.node[2].content_store 	decision_no[2] 	30129
scalar three_caches_scenario_3_links_network.node[3].core_layer 	interests[3] 	37749
scalar three_caches_scenario_3_links_network.node[3].core_layer 	data[3] 	31939
scalar three_caches_scenario_3_links_network.node[3].content_store 	p_hit[3] 	0.15391136189038
scalar three_caches_scenario_3_links_network.node[3].content_store 	hits[3] 	5810
scalar three_caches_scenario_3_links_network.node[3].content_store 	misses[3] 	31939
scalar three_caches_scenario_3_links_network.node[3].content_store 	decision_yes[3] 	1571
scalar three_caches_scenario_3_links_network.node[3].content_store 	decision_no[3] 	30368
scalar three_caches_scenario_3_links_network.node[4].core_layer 	interests[4] 	18766
scalar three_caches_scenario_3_links_network.node[4].core_layer 	repo_load[4] 	18766
scalar three_caches_scenario_3_links_network.node[4].core_layer 	data[4] 	0
scalar three_caches_scenario_3_links_network.node[4].content_store 	p_hit[4] 	0
scalar three_caches_scenario_3_links_network.node[4].content_store 	hits[4] 	0
scalar three_caches_scenario_3_links_network.node[4].content_store 	misses[4] 	18766
scalar three_caches_scenario_3_links_network.node[4].content_store 	decision_yes[4] 	0
scalar three_caches_scenario_3_links_network.node[4].content_store 	decision_no[4] 	18766
scalar three_caches_scenario_3_links_network.node[5].core_layer 	interests[5] 	31742
scalar three_caches_scenario_3_links_network.node[5].core_layer 	repo_load[5] 	31742
scalar three_caches_scenario_3_links_network.node[5].core_layer 	data[5] 	0
scalar three_caches_scenario_3_links_network.node[5].content_store 	p_hit[5] 	0
scalar three_caches_scenario_3_links_network.node[5].content_store 	hits[5] 	0
scalar three_caches_scenario_3_links_network.node[5].content_store 	misses[5] 	31742
scalar three_caches_scenario_3_links_network.node[5].content_store 	decision_yes[5] 	0
scalar three_caches_scenario_3_links_network.node[5].content_store 	decision_no[5] 	31742
scalar three_caches_scenario_3_links_network.node[6].core_layer 	interests[6] 	31939
scalar three_caches_scenario_3_links_network.node[6].core_layer 	repo_load[6] 	31939
scalar three_caches_scenario_3_links_network.node[6].core_layer 	data[6] 	0
scalar three_caches_scenario_3_links_network.node[6].content_store 	p_hit[6] 	0
scalar three_caches_scenario_3_links_network.node[6].content_store 	hits[6] 	0
scalar three_caches_scenario_3_links_network.node[6].content_store 	misses[6] 	31939
scalar three_caches_scenario_3_links_network.node[6].content_store 	decision_yes[6] 	0
scalar three_caches_scenario_3_links_network.node[6].content_store 	decision_no[6] 	31939
scalar three_caches_scenario_3_links_network.client[0] 	hdistance[0] 	1.3378910273183
scalar three_caches_scenario_3_links_network.client[0] 	downloads[0] 	179623
scalar three_caches_scenario_3_links_network.client[0] 	avg_time[0] 	0
scalar three_caches_scenario_3_links_network.client[0] 	interests_sent[0] 	179623
