version 2
run General-14-20140423-04:40:24-8255
attr D prob_cache
attr F nrr
attr R lru
attr a 1.2
attr configname General
attr csize 10^3
attr ctlg 10^8
attr datetime 20140423-04:40:24
attr experiment General
attr inifile omnetpp.ini
attr iterationvars "$net=simple_scenario, $rep=1, $priceratiovalue=1, $a=1.2, $ctlg=10^8, $F=nrr, $ttl=1000, $D=prob_cache, $R=lru, $csize=10^3"
attr iterationvars2 "$net=simple_scenario, $rep=1, $priceratiovalue=1, $a=1.2, $ctlg=10^8, $F=nrr, $ttl=1000, $D=prob_cache, $R=lru, $csize=10^3, $repetition=0"
attr measurement "$net=simple_scenario, $rep=1, $priceratiovalue=1, $a=1.2, $ctlg=10^8, $F=nrr, $ttl=1000, $D=prob_cache, $R=lru, $csize=10^3"
attr net simple_scenario
attr network networks.${net=simple_scenario}_network
attr priceratiovalue 1
attr processid 8255
attr rep 1
attr repetition 0
attr replication #0
attr resultdir results
attr runnumber 14
attr seedset 1
attr ttl 1000

scalar . 	a 	1.2
scalar . 	priceratiovalue 	1
scalar . 	rep 	1
scalar . 	ttl 	1000
scalar simple_scenario_network.content_distribution 	repo-0 	3
scalar simple_scenario_network.content_distribution 	repo-1 	4
scalar simple_scenario_network.content_distribution 	client-0 	0
scalar simple_scenario_network.content_distribution 	repo-0_card 	50003719
scalar simple_scenario_network.content_distribution 	repo-1_card 	49996281
scalar simple_scenario_network.statistics 	p_hit 	0.54806939909878
scalar simple_scenario_network.statistics 	interests 	51885.4
scalar simple_scenario_network.statistics 	data 	15993.4
scalar simple_scenario_network.statistics 	hdistance 	0.65330628938878
scalar simple_scenario_network.statistics 	avg_time 	0.001991040164
scalar simple_scenario_network.statistics 	downloads 	179461
scalar simple_scenario_network.statistics 	total_cost 	18638
scalar simple_scenario_network.node[0].core_layer 	interests[0] 	179460
scalar simple_scenario_network.node[0].core_layer 	data[0] 	42691
scalar simple_scenario_network.node[0].core_layer 	repo_int[0] 	37276
scalar simple_scenario_network.node[0].content_store 	p_hit[0] 	0.76211412013819
scalar simple_scenario_network.node[0].content_store 	hits[0] 	136769
scalar simple_scenario_network.node[0].content_store 	misses[0] 	42691
scalar simple_scenario_network.node[1].core_layer 	interests[1] 	21401
scalar simple_scenario_network.node[1].core_layer 	data[1] 	18656
scalar simple_scenario_network.node[1].content_store 	p_hit[1] 	0.12826503434419
scalar simple_scenario_network.node[1].content_store 	hits[1] 	2745
scalar simple_scenario_network.node[1].content_store 	misses[1] 	18656
scalar simple_scenario_network.node[2].core_layer 	interests[2] 	21290
scalar simple_scenario_network.node[2].core_layer 	data[2] 	18620
scalar simple_scenario_network.node[2].content_store 	p_hit[2] 	0.12541099107562
scalar simple_scenario_network.node[2].content_store 	hits[2] 	2670
scalar simple_scenario_network.node[2].content_store 	misses[2] 	18620
scalar simple_scenario_network.node[3].core_layer 	interests[3] 	18656
scalar simple_scenario_network.node[3].core_layer 	repo_load[3] 	18656
scalar simple_scenario_network.node[3].core_layer 	data[3] 	0
scalar simple_scenario_network.node[3].content_store 	p_hit[3] 	0
scalar simple_scenario_network.node[3].content_store 	hits[3] 	0
scalar simple_scenario_network.node[3].content_store 	misses[3] 	18656
scalar simple_scenario_network.node[4].core_layer 	interests[4] 	18620
scalar simple_scenario_network.node[4].core_layer 	repo_load[4] 	18620
scalar simple_scenario_network.node[4].core_layer 	data[4] 	0
scalar simple_scenario_network.node[4].content_store 	p_hit[4] 	0
scalar simple_scenario_network.node[4].content_store 	hits[4] 	0
scalar simple_scenario_network.node[4].content_store 	misses[4] 	18620
scalar simple_scenario_network.client[0] 	hdistance[0] 	0.65330628938878
scalar simple_scenario_network.client[0] 	downloads[0] 	179461
scalar simple_scenario_network.client[0] 	avg_time[0] 	0.001991040164
