version 2
run General-671-20140502-02:23:33-9566
attr D fix0.005
attr F nrr
attr R lru
attr a 1
attr configname General
attr csize 1e3
attr ctlg 1e5
attr datetime 20140502-02:23:33
attr experiment General
attr inifile omnetpp.ini
attr iterationvars "$net=three_caches_scenario_3_links, $rep=2, $priceratiovalue=1, $weights=0.7_0.15_0.15, $a=1, $ctlg=1e5, $F=nrr, $ttl=1000, $D=fix0.005, $xi=1, $R=lru, $csize=1e3"
attr iterationvars2 "$net=three_caches_scenario_3_links, $rep=2, $priceratiovalue=1, $weights=0.7_0.15_0.15, $a=1, $ctlg=1e5, $F=nrr, $ttl=1000, $D=fix0.005, $xi=1, $R=lru, $csize=1e3, $repetition=0"
attr measurement "$net=three_caches_scenario_3_links, $rep=2, $priceratiovalue=1, $weights=0.7_0.15_0.15, $a=1, $ctlg=1e5, $F=nrr, $ttl=1000, $D=fix0.005, $xi=1, $R=lru, $csize=1e3"
attr net three_caches_scenario_3_links
attr network networks.${net=three_caches_scenario_3_links}_network
attr priceratiovalue 1
attr processid 9566
attr rep 2
attr repetition 0
attr replication #0
attr resultdir results
attr runnumber 671
attr seedset 2
attr ttl 1000
attr weights 0.7_0.15_0.15
attr xi 1

scalar . 	a 	1
scalar . 	csize 	1e3
scalar . 	ctlg 	1e5
scalar . 	priceratiovalue 	1
scalar . 	rep 	2
scalar . 	ttl 	1000
scalar . 	xi 	1
scalar three_caches_scenario_3_links_network.content_distribution 	repo-0 	4
scalar three_caches_scenario_3_links_network.content_distribution 	repo-1 	5
scalar three_caches_scenario_3_links_network.content_distribution 	repo-2 	6
scalar three_caches_scenario_3_links_network.content_distribution 	client-0 	0
scalar three_caches_scenario_3_links_network.content_distribution 	repo-0_card 	69917
scalar three_caches_scenario_3_links_network.content_distribution 	repo-1_card 	15037
scalar three_caches_scenario_3_links_network.content_distribution 	repo-2_card 	15046
scalar three_caches_scenario_3_links_network.statistics 	p_hit 	0.2731276029221
scalar three_caches_scenario_3_links_network.statistics 	interests 	50218.285714286
scalar three_caches_scenario_3_links_network.statistics 	data 	24578.857142857
scalar three_caches_scenario_3_links_network.statistics 	hdistance 	1.0809690432147
scalar three_caches_scenario_3_links_network.statistics 	avg_time 	0
scalar three_caches_scenario_3_links_network.statistics 	downloads 	179476
scalar three_caches_scenario_3_links_network.statistics 	total_cost 	21956
scalar three_caches_scenario_3_links_network.statistics 	total_replicas 	100000
scalar three_caches_scenario_3_links_network.statistics 	interests_sent 	179476
scalar three_caches_scenario_3_links_network.node[0].core_layer 	interests[0] 	179476
scalar three_caches_scenario_3_links_network.node[0].core_layer 	data[0] 	88588
scalar three_caches_scenario_3_links_network.node[0].core_layer 	repo_int[0] 	83464
scalar three_caches_scenario_3_links_network.node[0].content_store 	p_hit[0] 	0.50640754195547
scalar three_caches_scenario_3_links_network.node[0].content_store 	hits[0] 	90888
scalar three_caches_scenario_3_links_network.node[0].content_store 	misses[0] 	88588
scalar three_caches_scenario_3_links_network.node[0].content_store 	decision_yes[0] 	448
scalar three_caches_scenario_3_links_network.node[0].content_store 	decision_no[0] 	88140
scalar three_caches_scenario_3_links_network.node[1].core_layer 	interests[1] 	61508
scalar three_caches_scenario_3_links_network.node[1].core_layer 	data[1] 	61508
scalar three_caches_scenario_3_links_network.node[1].content_store 	p_hit[1] 	0
scalar three_caches_scenario_3_links_network.node[1].content_store 	hits[1] 	0
scalar three_caches_scenario_3_links_network.node[1].content_store 	misses[1] 	61508
scalar three_caches_scenario_3_links_network.node[1].content_store 	decision_yes[1] 	0
scalar three_caches_scenario_3_links_network.node[1].content_store 	decision_no[1] 	61508
scalar three_caches_scenario_3_links_network.node[2].core_layer 	interests[2] 	13783
scalar three_caches_scenario_3_links_network.node[2].core_layer 	data[2] 	11136
scalar three_caches_scenario_3_links_network.node[2].content_store 	p_hit[2] 	0.1920481752884
scalar three_caches_scenario_3_links_network.node[2].content_store 	hits[2] 	2647
scalar three_caches_scenario_3_links_network.node[2].content_store 	misses[2] 	11136
scalar three_caches_scenario_3_links_network.node[2].content_store 	decision_yes[2] 	67
scalar three_caches_scenario_3_links_network.node[2].content_store 	decision_no[2] 	11069
scalar three_caches_scenario_3_links_network.node[3].core_layer 	interests[3] 	13297
scalar three_caches_scenario_3_links_network.node[3].core_layer 	data[3] 	10820
scalar three_caches_scenario_3_links_network.node[3].content_store 	p_hit[3] 	0.18628262013988
scalar three_caches_scenario_3_links_network.node[3].content_store 	hits[3] 	2477
scalar three_caches_scenario_3_links_network.node[3].content_store 	misses[3] 	10820
scalar three_caches_scenario_3_links_network.node[3].content_store 	decision_yes[3] 	56
scalar three_caches_scenario_3_links_network.node[3].content_store 	decision_no[3] 	10764
scalar three_caches_scenario_3_links_network.node[4].core_layer 	interests[4] 	61508
scalar three_caches_scenario_3_links_network.node[4].core_layer 	repo_load[4] 	61508
scalar three_caches_scenario_3_links_network.node[4].core_layer 	data[4] 	0
scalar three_caches_scenario_3_links_network.node[4].content_store 	p_hit[4] 	0
scalar three_caches_scenario_3_links_network.node[4].content_store 	hits[4] 	0
scalar three_caches_scenario_3_links_network.node[4].content_store 	misses[4] 	61508
scalar three_caches_scenario_3_links_network.node[4].content_store 	decision_yes[4] 	0
scalar three_caches_scenario_3_links_network.node[4].content_store 	decision_no[4] 	61508
scalar three_caches_scenario_3_links_network.node[5].core_layer 	interests[5] 	11136
scalar three_caches_scenario_3_links_network.node[5].core_layer 	repo_load[5] 	11136
scalar three_caches_scenario_3_links_network.node[5].core_layer 	data[5] 	0
scalar three_caches_scenario_3_links_network.node[5].content_store 	p_hit[5] 	0
scalar three_caches_scenario_3_links_network.node[5].content_store 	hits[5] 	0
scalar three_caches_scenario_3_links_network.node[5].content_store 	misses[5] 	11136
scalar three_caches_scenario_3_links_network.node[5].content_store 	decision_yes[5] 	0
scalar three_caches_scenario_3_links_network.node[5].content_store 	decision_no[5] 	11136
scalar three_caches_scenario_3_links_network.node[6].core_layer 	interests[6] 	10820
scalar three_caches_scenario_3_links_network.node[6].core_layer 	repo_load[6] 	10820
scalar three_caches_scenario_3_links_network.node[6].core_layer 	data[6] 	0
scalar three_caches_scenario_3_links_network.node[6].content_store 	p_hit[6] 	0
scalar three_caches_scenario_3_links_network.node[6].content_store 	hits[6] 	0
scalar three_caches_scenario_3_links_network.node[6].content_store 	misses[6] 	10820
scalar three_caches_scenario_3_links_network.node[6].content_store 	decision_yes[6] 	0
scalar three_caches_scenario_3_links_network.node[6].content_store 	decision_no[6] 	10820
scalar three_caches_scenario_3_links_network.client[0] 	hdistance[0] 	1.0809690432147
scalar three_caches_scenario_3_links_network.client[0] 	downloads[0] 	179476
scalar three_caches_scenario_3_links_network.client[0] 	avg_time[0] 	0
scalar three_caches_scenario_3_links_network.client[0] 	interests_sent[0] 	179476
