version 2
run General-664-20140425-00:25:27-11644
attr D costprob0.02
attr F nrr
attr R lru
attr a 1.2
attr configname General
attr csize 30
attr ctlg 10^3
attr datetime 20140425-00:25:27
attr experiment General
attr inifile omnetpp.ini
attr iterationvars "$net=one_cache_scenario, $rep=2, $priceratiovalue=6, $a=1.2, $ctlg=10^3, $F=nrr, $ttl=1000, $D=costprob0.02, $R=lru, $csize=30"
attr iterationvars2 "$net=one_cache_scenario, $rep=2, $priceratiovalue=6, $a=1.2, $ctlg=10^3, $F=nrr, $ttl=1000, $D=costprob0.02, $R=lru, $csize=30, $repetition=0"
attr measurement "$net=one_cache_scenario, $rep=2, $priceratiovalue=6, $a=1.2, $ctlg=10^3, $F=nrr, $ttl=1000, $D=costprob0.02, $R=lru, $csize=30"
attr net one_cache_scenario
attr network networks.${net=one_cache_scenario}_network
attr priceratiovalue 6
attr processid 11644
attr rep 2
attr repetition 0
attr replication #0
attr resultdir results
attr runnumber 664
attr seedset 2
attr ttl 1000

scalar . 	a 	1.2
scalar . 	csize 	30
scalar . 	priceratiovalue 	6
scalar . 	rep 	2
scalar . 	ttl 	1000
scalar one_cache_scenario_network.content_distribution 	repo-0 	3
scalar one_cache_scenario_network.content_distribution 	repo-1 	4
scalar one_cache_scenario_network.content_distribution 	client-0 	0
scalar one_cache_scenario_network.content_distribution 	repo-0_card 	490
scalar one_cache_scenario_network.content_distribution 	repo-1_card 	510
scalar one_cache_scenario_network.statistics 	p_hit 	0.41296133270129
scalar one_cache_scenario_network.statistics 	interests 	59068
scalar one_cache_scenario_network.statistics 	data 	23116.8
scalar one_cache_scenario_network.statistics 	hdistance 	0.6430049622822
scalar one_cache_scenario_network.statistics 	avg_time 	0
scalar one_cache_scenario_network.statistics 	downloads 	179756
scalar one_cache_scenario_network.statistics 	total_cost 	26720
scalar one_cache_scenario_network.statistics 	interests_sent 	179756
scalar one_cache_scenario_network.node[0].core_layer 	interests[0] 	179756
scalar one_cache_scenario_network.node[0].core_layer 	data[0] 	57792
scalar one_cache_scenario_network.node[0].core_layer 	repo_int[0] 	57792
scalar one_cache_scenario_network.node[0].content_store 	p_hit[0] 	0.6784975188589
scalar one_cache_scenario_network.node[0].content_store 	hits[0] 	121964
scalar one_cache_scenario_network.node[0].content_store 	misses[0] 	57792
scalar one_cache_scenario_network.node[0].content_store 	decision_yes[0] 	532
scalar one_cache_scenario_network.node[0].content_store 	decision_no[0] 	57260
scalar one_cache_scenario_network.node[1].core_layer 	interests[1] 	31940
scalar one_cache_scenario_network.node[1].core_layer 	data[1] 	31940
scalar one_cache_scenario_network.node[1].content_store 	p_hit[1] 	0
scalar one_cache_scenario_network.node[1].content_store 	hits[1] 	0
scalar one_cache_scenario_network.node[1].content_store 	misses[1] 	31940
scalar one_cache_scenario_network.node[1].content_store 	decision_yes[1] 	0
scalar one_cache_scenario_network.node[1].content_store 	decision_no[1] 	31940
scalar one_cache_scenario_network.node[2].core_layer 	interests[2] 	25852
scalar one_cache_scenario_network.node[2].core_layer 	data[2] 	25852
scalar one_cache_scenario_network.node[2].content_store 	p_hit[2] 	0
scalar one_cache_scenario_network.node[2].content_store 	hits[2] 	0
scalar one_cache_scenario_network.node[2].content_store 	misses[2] 	25852
scalar one_cache_scenario_network.node[2].content_store 	decision_yes[2] 	0
scalar one_cache_scenario_network.node[2].content_store 	decision_no[2] 	25852
scalar one_cache_scenario_network.node[3].core_layer 	interests[3] 	31940
scalar one_cache_scenario_network.node[3].core_layer 	repo_load[3] 	31940
scalar one_cache_scenario_network.node[3].core_layer 	data[3] 	0
scalar one_cache_scenario_network.node[3].content_store 	p_hit[3] 	0
scalar one_cache_scenario_network.node[3].content_store 	hits[3] 	0
scalar one_cache_scenario_network.node[3].content_store 	misses[3] 	31940
scalar one_cache_scenario_network.node[3].content_store 	decision_yes[3] 	0
scalar one_cache_scenario_network.node[3].content_store 	decision_no[3] 	31940
scalar one_cache_scenario_network.node[4].core_layer 	interests[4] 	25852
scalar one_cache_scenario_network.node[4].core_layer 	repo_load[4] 	25852
scalar one_cache_scenario_network.node[4].core_layer 	data[4] 	0
scalar one_cache_scenario_network.node[4].content_store 	p_hit[4] 	0
scalar one_cache_scenario_network.node[4].content_store 	hits[4] 	0
scalar one_cache_scenario_network.node[4].content_store 	misses[4] 	25852
scalar one_cache_scenario_network.node[4].content_store 	decision_yes[4] 	0
scalar one_cache_scenario_network.node[4].content_store 	decision_no[4] 	25852
scalar one_cache_scenario_network.client[0] 	hdistance[0] 	0.6430049622822
scalar one_cache_scenario_network.client[0] 	downloads[0] 	179756
scalar one_cache_scenario_network.client[0] 	avg_time[0] 	0
scalar one_cache_scenario_network.client[0] 	interests_sent[0] 	179756
