version 2
run General-2077-20140423-19:24:32-28028
attr D lce
attr F nrr
attr R lru
attr a 1.2
attr configname General
attr csize 2
attr ctlg 10^3
attr datetime 20140423-19:24:32
attr experiment General
attr inifile omnetpp.ini
attr iterationvars "$net=simple_scenario, $rep=6, $priceratiovalue=8, $a=1.2, $ctlg=10^3, $F=nrr, $ttl=1000, $D=lce, $R=lru, $csize=2"
attr iterationvars2 "$net=simple_scenario, $rep=6, $priceratiovalue=8, $a=1.2, $ctlg=10^3, $F=nrr, $ttl=1000, $D=lce, $R=lru, $csize=2, $repetition=0"
attr measurement "$net=simple_scenario, $rep=6, $priceratiovalue=8, $a=1.2, $ctlg=10^3, $F=nrr, $ttl=1000, $D=lce, $R=lru, $csize=2"
attr net simple_scenario
attr network networks.${net=simple_scenario}_network
attr priceratiovalue 8
attr processid 28028
attr rep 6
attr repetition 0
attr replication #0
attr resultdir results
attr runnumber 2077
attr seedset 6
attr ttl 1000

scalar . 	a 	1.2
scalar . 	csize 	2
scalar . 	priceratiovalue 	8
scalar . 	rep 	6
scalar . 	ttl 	1000
scalar simple_scenario_network.content_distribution 	repo-0 	3
scalar simple_scenario_network.content_distribution 	repo-1 	4
scalar simple_scenario_network.content_distribution 	client-0 	0
scalar simple_scenario_network.content_distribution 	repo-0_card 	495
scalar simple_scenario_network.content_distribution 	repo-1_card 	505
scalar simple_scenario_network.statistics 	p_hit 	0.089797784584382
scalar simple_scenario_network.statistics 	interests 	94483.4
scalar simple_scenario_network.statistics 	data 	58519.4
scalar simple_scenario_network.statistics 	hdistance 	2.3912523634746
scalar simple_scenario_network.statistics 	avg_time 	0.001984653392
scalar simple_scenario_network.statistics 	downloads 	179820
scalar simple_scenario_network.statistics 	total_cost 	68480
scalar simple_scenario_network.node[0].core_layer 	interests[0] 	179820
scalar simple_scenario_network.node[0].core_layer 	data[0] 	155199
scalar simple_scenario_network.node[0].core_layer 	repo_int[0] 	137398
scalar simple_scenario_network.node[0].content_store 	p_hit[0] 	0.13692025358692
scalar simple_scenario_network.node[0].content_store 	hits[0] 	24621
scalar simple_scenario_network.node[0].content_store 	misses[0] 	155199
scalar simple_scenario_network.node[1].core_layer 	interests[1] 	80617
scalar simple_scenario_network.node[1].core_layer 	data[1] 	68980
scalar simple_scenario_network.node[1].content_store 	p_hit[1] 	0.14434920674299
scalar simple_scenario_network.node[1].content_store 	hits[1] 	11637
scalar simple_scenario_network.node[1].content_store 	misses[1] 	68980
scalar simple_scenario_network.node[2].core_layer 	interests[2] 	74582
scalar simple_scenario_network.node[2].core_layer 	data[2] 	68418
scalar simple_scenario_network.node[2].content_store 	p_hit[2] 	0.082647287549275
scalar simple_scenario_network.node[2].content_store 	hits[2] 	6164
scalar simple_scenario_network.node[2].content_store 	misses[2] 	68418
scalar simple_scenario_network.node[3].core_layer 	interests[3] 	68980
scalar simple_scenario_network.node[3].core_layer 	repo_load[3] 	68980
scalar simple_scenario_network.node[3].core_layer 	data[3] 	0
scalar simple_scenario_network.node[3].content_store 	p_hit[3] 	0
scalar simple_scenario_network.node[3].content_store 	hits[3] 	0
scalar simple_scenario_network.node[3].content_store 	misses[3] 	68980
scalar simple_scenario_network.node[4].core_layer 	interests[4] 	68418
scalar simple_scenario_network.node[4].core_layer 	repo_load[4] 	68418
scalar simple_scenario_network.node[4].core_layer 	data[4] 	0
scalar simple_scenario_network.node[4].content_store 	p_hit[4] 	0
scalar simple_scenario_network.node[4].content_store 	hits[4] 	0
scalar simple_scenario_network.node[4].content_store 	misses[4] 	68418
scalar simple_scenario_network.client[0] 	hdistance[0] 	2.3912523634746
scalar simple_scenario_network.client[0] 	downloads[0] 	179820
scalar simple_scenario_network.client[0] 	avg_time[0] 	0.001984653392
