version 2
run General-5677-20140423-20:55:26-457
attr D lce
attr F nrr
attr R lru
attr a 1.2
attr configname General
attr csize 2
attr ctlg 10^3
attr datetime 20140423-20:55:26
attr experiment General
attr inifile omnetpp.ini
attr iterationvars "$net=simple_scenario, $rep=16, $priceratiovalue=8, $a=1.2, $ctlg=10^3, $F=nrr, $ttl=1000, $D=lce, $R=lru, $csize=2"
attr iterationvars2 "$net=simple_scenario, $rep=16, $priceratiovalue=8, $a=1.2, $ctlg=10^3, $F=nrr, $ttl=1000, $D=lce, $R=lru, $csize=2, $repetition=0"
attr measurement "$net=simple_scenario, $rep=16, $priceratiovalue=8, $a=1.2, $ctlg=10^3, $F=nrr, $ttl=1000, $D=lce, $R=lru, $csize=2"
attr net simple_scenario
attr network networks.${net=simple_scenario}_network
attr priceratiovalue 8
attr processid 457
attr rep 16
attr repetition 0
attr replication #0
attr resultdir results
attr runnumber 5677
attr seedset 16
attr ttl 1000

scalar . 	a 	1.2
scalar . 	csize 	2
scalar . 	priceratiovalue 	8
scalar . 	rep 	16
scalar . 	ttl 	1000
scalar simple_scenario_network.content_distribution 	repo-0 	3
scalar simple_scenario_network.content_distribution 	repo-1 	4
scalar simple_scenario_network.content_distribution 	client-0 	0
scalar simple_scenario_network.content_distribution 	repo-0_card 	495
scalar simple_scenario_network.content_distribution 	repo-1_card 	505
scalar simple_scenario_network.statistics 	p_hit 	0.084405175134112
scalar simple_scenario_network.statistics 	interests 	95070
scalar simple_scenario_network.statistics 	data 	59083.8
scalar simple_scenario_network.statistics 	hdistance 	2.4188605632159
scalar simple_scenario_network.statistics 	avg_time 	0.001985400214
scalar simple_scenario_network.statistics 	downloads 	179931
scalar simple_scenario_network.statistics 	total_cost 	77816
scalar simple_scenario_network.node[0].core_layer 	interests[0] 	179931
scalar simple_scenario_network.node[0].core_layer 	data[0] 	155610
scalar simple_scenario_network.node[0].core_layer 	repo_int[0] 	139809
scalar simple_scenario_network.node[0].content_store 	p_hit[0] 	0.13516848125115
scalar simple_scenario_network.node[0].content_store 	hits[0] 	24321
scalar simple_scenario_network.node[0].content_store 	misses[0] 	155610
scalar simple_scenario_network.node[1].core_layer 	interests[1] 	65261
scalar simple_scenario_network.node[1].core_layer 	data[1] 	59731
scalar simple_scenario_network.node[1].content_store 	p_hit[1] 	0.084736672744825
scalar simple_scenario_network.node[1].content_store 	hits[1] 	5530
scalar simple_scenario_network.node[1].content_store 	misses[1] 	59731
scalar simple_scenario_network.node[2].core_layer 	interests[2] 	90349
scalar simple_scenario_network.node[2].core_layer 	data[2] 	80078
scalar simple_scenario_network.node[2].content_store 	p_hit[2] 	0.11368139105026
scalar simple_scenario_network.node[2].content_store 	hits[2] 	10271
scalar simple_scenario_network.node[2].content_store 	misses[2] 	80078
scalar simple_scenario_network.node[3].core_layer 	interests[3] 	59731
scalar simple_scenario_network.node[3].core_layer 	repo_load[3] 	59731
scalar simple_scenario_network.node[3].core_layer 	data[3] 	0
scalar simple_scenario_network.node[3].content_store 	p_hit[3] 	0
scalar simple_scenario_network.node[3].content_store 	hits[3] 	0
scalar simple_scenario_network.node[3].content_store 	misses[3] 	59731
scalar simple_scenario_network.node[4].core_layer 	interests[4] 	80078
scalar simple_scenario_network.node[4].core_layer 	repo_load[4] 	80078
scalar simple_scenario_network.node[4].core_layer 	data[4] 	0
scalar simple_scenario_network.node[4].content_store 	p_hit[4] 	0
scalar simple_scenario_network.node[4].content_store 	hits[4] 	0
scalar simple_scenario_network.node[4].content_store 	misses[4] 	80078
scalar simple_scenario_network.client[0] 	hdistance[0] 	2.4188605632159
scalar simple_scenario_network.client[0] 	downloads[0] 	179931
scalar simple_scenario_network.client[0] 	avg_time[0] 	0.001985400214
