version 2
run General-2022-20140422-20:21:53-14940
attr D lce
attr F nrr
attr R lru
attr a 1.2
attr configname General
attr csize 10
attr ctlg 10^3
attr datetime 20140422-20:21:53
attr experiment General
attr inifile omnetpp.ini
attr iterationvars "$net=simple_scenario, $rep=17, $priceratiovalue=9, $a=1.2, $ctlg=10^3, $F=nrr, $ttl=1000, $D=lce, $R=lru, $csize=10"
attr iterationvars2 "$net=simple_scenario, $rep=17, $priceratiovalue=9, $a=1.2, $ctlg=10^3, $F=nrr, $ttl=1000, $D=lce, $R=lru, $csize=10, $repetition=0"
attr measurement "$net=simple_scenario, $rep=17, $priceratiovalue=9, $a=1.2, $ctlg=10^3, $F=nrr, $ttl=1000, $D=lce, $R=lru, $csize=10"
attr net simple_scenario
attr network networks.${net=simple_scenario}_network
attr priceratiovalue 9
attr processid 14940
attr rep 17
attr repetition 0
attr replication #0
attr resultdir results
attr runnumber 2022
attr seedset 17
attr ttl 1000

scalar . 	a 	1.2
scalar . 	csize 	10
scalar . 	priceratiovalue 	9
scalar . 	rep 	17
scalar . 	ttl 	1000
scalar simple_scenario_network.content_distribution 	repo-0 	3
scalar simple_scenario_network.content_distribution 	repo-1 	4
scalar simple_scenario_network.content_distribution 	client-0 	0
scalar simple_scenario_network.content_distribution 	repo-0_card 	481
scalar simple_scenario_network.content_distribution 	repo-1_card 	519
scalar simple_scenario_network.statistics 	p_hit 	0.24221656653981
scalar simple_scenario_network.statistics 	interests 	75204.6
scalar simple_scenario_network.statistics 	data 	39223.8
scalar simple_scenario_network.statistics 	hdistance 	1.5838669512629
scalar simple_scenario_network.statistics 	avg_time 	0.001985849727
scalar simple_scenario_network.statistics 	downloads 	179904
scalar simple_scenario_network.statistics 	total_cost 	47693
scalar simple_scenario_network.node[0].core_layer 	interests[0] 	179904
scalar simple_scenario_network.node[0].core_layer 	data[0] 	107294
scalar simple_scenario_network.node[0].core_layer 	repo_int[0] 	88825
scalar simple_scenario_network.node[0].content_store 	p_hit[0] 	0.40360414443259
scalar simple_scenario_network.node[0].content_store 	hits[0] 	72610
scalar simple_scenario_network.node[0].content_store 	misses[0] 	107294
scalar simple_scenario_network.node[1].core_layer 	interests[1] 	49409
scalar simple_scenario_network.node[1].core_layer 	data[1] 	40311
scalar simple_scenario_network.node[1].content_store 	p_hit[1] 	0.18413649335141
scalar simple_scenario_network.node[1].content_store 	hits[1] 	9098
scalar simple_scenario_network.node[1].content_store 	misses[1] 	40311
scalar simple_scenario_network.node[2].core_layer 	interests[2] 	57885
scalar simple_scenario_network.node[2].core_layer 	data[2] 	48514
scalar simple_scenario_network.node[2].content_store 	p_hit[2] 	0.16188995421957
scalar simple_scenario_network.node[2].content_store 	hits[2] 	9371
scalar simple_scenario_network.node[2].content_store 	misses[2] 	48514
scalar simple_scenario_network.node[3].core_layer 	interests[3] 	40311
scalar simple_scenario_network.node[3].core_layer 	repo_load[3] 	40311
scalar simple_scenario_network.node[3].core_layer 	data[3] 	0
scalar simple_scenario_network.node[3].content_store 	p_hit[3] 	0
scalar simple_scenario_network.node[3].content_store 	hits[3] 	0
scalar simple_scenario_network.node[3].content_store 	misses[3] 	40311
scalar simple_scenario_network.node[4].core_layer 	interests[4] 	48514
scalar simple_scenario_network.node[4].core_layer 	repo_load[4] 	48514
scalar simple_scenario_network.node[4].core_layer 	data[4] 	0
scalar simple_scenario_network.node[4].content_store 	p_hit[4] 	0
scalar simple_scenario_network.node[4].content_store 	hits[4] 	0
scalar simple_scenario_network.node[4].content_store 	misses[4] 	48514
scalar simple_scenario_network.client[0] 	hdistance[0] 	1.5838669512629
scalar simple_scenario_network.client[0] 	downloads[0] 	179904
scalar simple_scenario_network.client[0] 	avg_time[0] 	0.001985849727
