version 2
run General-0-20150519-11:05:09-22955
attr D lce
attr F spr
attr R lru
attr a 1
attr configname General
attr datetime 20150519-11:05:09
attr experiment General
attr inifile omnetpp.ini
attr iterationvars "$net=abilene, $rep=0, $a=1, $F=spr, $ttl=1000, $D=lce, $R=lru"
attr iterationvars2 "$net=abilene, $rep=0, $a=1, $F=spr, $ttl=1000, $D=lce, $R=lru, $repetition=0"
attr measurement "$net=abilene, $rep=0, $a=1, $F=spr, $ttl=1000, $D=lce, $R=lru"
attr net abilene
attr network networks.${net=abilene}_network
attr processid 22955
attr rep 0
attr repetition 0
attr replication #0
attr resultdir results
attr runnumber 0
attr seedset 0
attr ttl 1000

scalar . 	a 	1
scalar . 	rep 	0
scalar . 	ttl 	1000
scalar abilene_network.content_distribution 	repo-0 	5
scalar abilene_network.content_distribution 	repo-1 	8
scalar abilene_network.content_distribution 	repo-2 	9
scalar abilene_network.content_distribution 	repo-3 	0
scalar abilene_network.content_distribution 	repo-4 	1
scalar abilene_network.content_distribution 	repo-5 	7
scalar abilene_network.content_distribution 	repo-6 	6
scalar abilene_network.content_distribution 	repo-7 	2
scalar abilene_network.content_distribution 	repo-8 	4
scalar abilene_network.content_distribution 	repo-9 	10
scalar abilene_network.content_distribution 	repo-10 	3
scalar abilene_network.content_distribution 	client-0 	10
scalar abilene_network.content_distribution 	client-1 	9
scalar abilene_network.content_distribution 	client-2 	8
scalar abilene_network.content_distribution 	client-3 	7
scalar abilene_network.content_distribution 	client-4 	3
scalar abilene_network.content_distribution 	client-5 	6
scalar abilene_network.content_distribution 	client-6 	5
scalar abilene_network.content_distribution 	client-7 	1
scalar abilene_network.content_distribution 	client-8 	4
scalar abilene_network.content_distribution 	client-9 	0
scalar abilene_network.content_distribution 	client-10 	2
scalar abilene_network.content_distribution 	repo-0_card 	930
scalar abilene_network.content_distribution 	repo-0_price 	0
scalar abilene_network.content_distribution 	repo-1_card 	833
scalar abilene_network.content_distribution 	repo-1_price 	0
scalar abilene_network.content_distribution 	repo-2_card 	911
scalar abilene_network.content_distribution 	repo-2_price 	0
scalar abilene_network.content_distribution 	repo-3_card 	918
scalar abilene_network.content_distribution 	repo-3_price 	0
scalar abilene_network.content_distribution 	repo-4_card 	885
scalar abilene_network.content_distribution 	repo-4_price 	0
scalar abilene_network.content_distribution 	repo-5_card 	973
scalar abilene_network.content_distribution 	repo-5_price 	0
scalar abilene_network.content_distribution 	repo-6_card 	915
scalar abilene_network.content_distribution 	repo-6_price 	0
scalar abilene_network.content_distribution 	repo-7_card 	937
scalar abilene_network.content_distribution 	repo-7_price 	0
scalar abilene_network.content_distribution 	repo-8_card 	890
scalar abilene_network.content_distribution 	repo-8_price 	0
scalar abilene_network.content_distribution 	repo-9_card 	891
scalar abilene_network.content_distribution 	repo-9_price 	0
scalar abilene_network.content_distribution 	repo-10_card 	917
scalar abilene_network.content_distribution 	repo-10_price 	0
scalar abilene_network.statistics 	stabilization_time 	203.2
scalar abilene_network.statistics 	p_hit 	0.21343369267079
scalar abilene_network.statistics 	interests 	4275.5454545455
scalar abilene_network.statistics 	data 	2474.3636363636
scalar abilene_network.statistics 	hdistance 	1.8689631107123
scalar abilene_network.statistics 	avg_time 	0.008849870987
scalar abilene_network.statistics 	downloads 	19813
scalar abilene_network.statistics 	total_cost 	0
scalar abilene_network.statistics 	total_replicas 	10000
scalar abilene_network.statistics 	inner_hit 	0.50663705647807
scalar abilene_network.statistics 	interests_sent 	19813
scalar abilene_network.node[0].core_layer 	interests[0] 	2619
scalar abilene_network.node[0].core_layer 	repo_load[0] 	783
scalar abilene_network.node[0].core_layer 	data[0] 	1059
scalar abilene_network.node[0].core_layer 	repo_int[0] 	9775
scalar abilene_network.node[0].content_store 	p_hit[0] 	0.29667812142039
scalar abilene_network.node[0].content_store 	hits[0] 	777
scalar abilene_network.node[0].content_store 	misses[0] 	1842
scalar abilene_network.node[0].content_store 	decision_yes[0] 	1842
scalar abilene_network.node[0].content_store 	decision_no[0] 	0
scalar abilene_network.node[0].content_store 	decision_ratio[0] 	1
scalar abilene_network.node[1].core_layer 	interests[1] 	5029
scalar abilene_network.node[1].core_layer 	repo_load[1] 	879
scalar abilene_network.node[1].core_layer 	data[1] 	3209
scalar abilene_network.node[1].content_store 	p_hit[1] 	0.18711473453967
scalar abilene_network.node[1].content_store 	hits[1] 	941
scalar abilene_network.node[1].content_store 	misses[1] 	4088
scalar abilene_network.node[1].content_store 	decision_yes[1] 	4088
scalar abilene_network.node[1].content_store 	decision_no[1] 	0
scalar abilene_network.node[1].content_store 	decision_ratio[1] 	1
scalar abilene_network.node[2].core_layer 	interests[2] 	6965
scalar abilene_network.node[2].core_layer 	repo_load[2] 	1200
scalar abilene_network.node[2].core_layer 	data[2] 	4610
scalar abilene_network.node[2].content_store 	p_hit[2] 	0.16582914572864
scalar abilene_network.node[2].content_store 	hits[2] 	1155
scalar abilene_network.node[2].content_store 	misses[2] 	5810
scalar abilene_network.node[2].content_store 	decision_yes[2] 	5810
scalar abilene_network.node[2].content_store 	decision_no[2] 	0
scalar abilene_network.node[2].content_store 	decision_ratio[2] 	1
scalar abilene_network.node[3].core_layer 	interests[3] 	6346
scalar abilene_network.node[3].core_layer 	repo_load[3] 	960
scalar abilene_network.node[3].core_layer 	data[3] 	4361
scalar abilene_network.node[3].content_store 	p_hit[3] 	0.1615190671289
scalar abilene_network.node[3].content_store 	hits[3] 	1025
scalar abilene_network.node[3].content_store 	misses[3] 	5321
scalar abilene_network.node[3].content_store 	decision_yes[3] 	5321
scalar abilene_network.node[3].content_store 	decision_no[3] 	0
scalar abilene_network.node[3].content_store 	decision_ratio[3] 	1
scalar abilene_network.node[4].core_layer 	interests[4] 	3857
scalar abilene_network.node[4].core_layer 	repo_load[4] 	810
scalar abilene_network.node[4].core_layer 	data[4] 	2116
scalar abilene_network.node[4].content_store 	p_hit[4] 	0.24137931034483
scalar abilene_network.node[4].content_store 	hits[4] 	931
scalar abilene_network.node[4].content_store 	misses[4] 	2926
scalar abilene_network.node[4].content_store 	decision_yes[4] 	2926
scalar abilene_network.node[4].content_store 	decision_no[4] 	0
scalar abilene_network.node[4].content_store 	decision_ratio[4] 	1
scalar abilene_network.node[5].core_layer 	interests[5] 	2977
scalar abilene_network.node[5].core_layer 	repo_load[5] 	901
scalar abilene_network.node[5].core_layer 	data[5] 	1294
scalar abilene_network.node[5].content_store 	p_hit[5] 	0.26268055089016
scalar abilene_network.node[5].content_store 	hits[5] 	782
scalar abilene_network.node[5].content_store 	misses[5] 	2195
scalar abilene_network.node[5].content_store 	decision_yes[5] 	2195
scalar abilene_network.node[5].content_store 	decision_no[5] 	0
scalar abilene_network.node[5].content_store 	decision_ratio[5] 	1
scalar abilene_network.node[6].core_layer 	interests[6] 	3371
scalar abilene_network.node[6].core_layer 	repo_load[6] 	900
scalar abilene_network.node[6].core_layer 	data[6] 	1680
scalar abilene_network.node[6].content_store 	p_hit[6] 	0.23464847226342
scalar abilene_network.node[6].content_store 	hits[6] 	791
scalar abilene_network.node[6].content_store 	misses[6] 	2580
scalar abilene_network.node[6].content_store 	decision_yes[6] 	2580
scalar abilene_network.node[6].content_store 	decision_no[6] 	0
scalar abilene_network.node[6].content_store 	decision_ratio[6] 	1
scalar abilene_network.node[7].core_layer 	interests[7] 	4609
scalar abilene_network.node[7].core_layer 	repo_load[7] 	841
scalar abilene_network.node[7].core_layer 	data[7] 	2878
scalar abilene_network.node[7].content_store 	p_hit[7] 	0.19310045563029
scalar abilene_network.node[7].content_store 	hits[7] 	890
scalar abilene_network.node[7].content_store 	misses[7] 	3719
scalar abilene_network.node[7].content_store 	decision_yes[7] 	3719
scalar abilene_network.node[7].content_store 	decision_no[7] 	0
scalar abilene_network.node[7].content_store 	decision_ratio[7] 	1
scalar abilene_network.node[8].core_layer 	interests[8] 	4564
scalar abilene_network.node[8].core_layer 	repo_load[8] 	826
scalar abilene_network.node[8].core_layer 	data[8] 	2763
scalar abilene_network.node[8].content_store 	p_hit[8] 	0.21362839614373
scalar abilene_network.node[8].content_store 	hits[8] 	975
scalar abilene_network.node[8].content_store 	misses[8] 	3589
scalar abilene_network.node[8].content_store 	decision_yes[8] 	3589
scalar abilene_network.node[8].content_store 	decision_no[8] 	0
scalar abilene_network.node[8].content_store 	decision_ratio[8] 	1
scalar abilene_network.node[9].core_layer 	interests[9] 	3420
scalar abilene_network.node[9].core_layer 	repo_load[9] 	877
scalar abilene_network.node[9].core_layer 	data[9] 	1728
scalar abilene_network.node[9].content_store 	p_hit[9] 	0.23830409356725
scalar abilene_network.node[9].content_store 	hits[9] 	815
scalar abilene_network.node[9].content_store 	misses[9] 	2605
scalar abilene_network.node[9].content_store 	decision_yes[9] 	2605
scalar abilene_network.node[9].content_store 	decision_no[9] 	0
scalar abilene_network.node[9].content_store 	decision_ratio[9] 	1
scalar abilene_network.node[10].core_layer 	interests[10] 	3274
scalar abilene_network.node[10].core_layer 	repo_load[10] 	798
scalar abilene_network.node[10].core_layer 	data[10] 	1520
scalar abilene_network.node[10].content_store 	p_hit[10] 	0.2919975565058
scalar abilene_network.node[10].content_store 	hits[10] 	956
scalar abilene_network.node[10].content_store 	misses[10] 	2318
scalar abilene_network.node[10].content_store 	decision_yes[10] 	2318
scalar abilene_network.node[10].content_store 	decision_no[10] 	0
scalar abilene_network.node[10].content_store 	decision_ratio[10] 	1
scalar abilene_network.client[0] 	hdistance[0] 	2.2293364377183
scalar abilene_network.client[0] 	downloads[0] 	1718
scalar abilene_network.client[0] 	avg_time[0] 	0.012107217266
scalar abilene_network.client[0] 	interests_sent[0] 	1718
scalar abilene_network.client[1] 	hdistance[1] 	1.7799426934097
scalar abilene_network.client[1] 	downloads[1] 	1745
scalar abilene_network.client[1] 	avg_time[1] 	0.007646326204
scalar abilene_network.client[1] 	interests_sent[1] 	1745
scalar abilene_network.client[2] 	hdistance[2] 	1.5446973903387
scalar abilene_network.client[2] 	downloads[2] 	1801
scalar abilene_network.client[2] 	avg_time[2] 	0.006497434304
scalar abilene_network.client[2] 	interests_sent[2] 	1801
scalar abilene_network.client[3] 	hdistance[3] 	1.6769144773617
scalar abilene_network.client[3] 	downloads[3] 	1789
scalar abilene_network.client[3] 	avg_time[3] 	0.007008037566
scalar abilene_network.client[3] 	interests_sent[3] 	1789
scalar abilene_network.client[4] 	hdistance[4] 	1.9735563950351
scalar abilene_network.client[4] 	downloads[4] 	1853
scalar abilene_network.client[4] 	avg_time[4] 	0.007225320627
scalar abilene_network.client[4] 	interests_sent[4] 	1853
scalar abilene_network.client[5] 	hdistance[5] 	2.1183765501691
scalar abilene_network.client[5] 	downloads[5] 	1774
scalar abilene_network.client[5] 	avg_time[5] 	0.009131059312
scalar abilene_network.client[5] 	interests_sent[5] 	1774
scalar abilene_network.client[6] 	hdistance[6] 	2.0044817927171
scalar abilene_network.client[6] 	downloads[6] 	1785
scalar abilene_network.client[6] 	avg_time[6] 	0.009471002359
scalar abilene_network.client[6] 	interests_sent[6] 	1785
scalar abilene_network.client[7] 	hdistance[7] 	1.7159090909091
scalar abilene_network.client[7] 	downloads[7] 	1760
scalar abilene_network.client[7] 	avg_time[7] 	0.00756978365
scalar abilene_network.client[7] 	interests_sent[7] 	1760
scalar abilene_network.client[8] 	hdistance[8] 	1.6277102062401
scalar abilene_network.client[8] 	downloads[8] 	1891
scalar abilene_network.client[8] 	avg_time[8] 	0.00785875152
scalar abilene_network.client[8] 	interests_sent[8] 	1891
scalar abilene_network.client[9] 	hdistance[9] 	1.8936965811966
scalar abilene_network.client[9] 	downloads[9] 	1872
scalar abilene_network.client[9] 	avg_time[9] 	0.012012990975
scalar abilene_network.client[9] 	interests_sent[9] 	1872
scalar abilene_network.client[10] 	hdistance[10] 	1.9939726027397
scalar abilene_network.client[10] 	downloads[10] 	1825
scalar abilene_network.client[10] 	avg_time[10] 	0.010820657079
scalar abilene_network.client[10] 	interests_sent[10] 	1825
