version 2
run General-1-20150720-18:57:15-13270
attr C 1e4
attr D lce
attr F spr
attr R always_highq
attr a 1
attr brates 0.3_0.7_1.5_2.5_3.5
attr configname General
attr ctlg 1e6
attr datetime 20150720-18:57:15
attr experiment General
attr inifile omnetpp.ini
attr iterationvars "$net=abilene_nodelay, $rep=0, $lambda=100, $a=1, $ctlg=1e6, $brates=0.3_0.7_1.5_2.5_3.5, $F=spr, $ttl=1000, $D=lce, $R=always_highq, $C=1e4, $window=60, $variance=0.05, $mytime=1800"
attr iterationvars2 "$net=abilene_nodelay, $rep=0, $lambda=100, $a=1, $ctlg=1e6, $brates=0.3_0.7_1.5_2.5_3.5, $F=spr, $ttl=1000, $D=lce, $R=always_highq, $C=1e4, $window=60, $variance=0.05, $mytime=1800, $repetition=0"
attr lambda 100
attr measurement "$net=abilene_nodelay, $rep=0, $lambda=100, $a=1, $ctlg=1e6, $brates=0.3_0.7_1.5_2.5_3.5, $F=spr, $ttl=1000, $D=lce, $R=always_highq, $C=1e4, $window=60, $variance=0.05, $mytime=1800"
attr mytime 1800
attr net abilene_nodelay
attr network networks.${net=abilene_nodelay}_network
attr processid 13270
attr rep 0
attr repetition 0
attr replication #0
attr resultdir results
attr runnumber 1
attr seedset 0
attr ttl 1000
attr variance 0.05
attr window 60

scalar . 	C 	1e4
scalar . 	a 	1
scalar . 	ctlg 	1e6
scalar . 	lambda 	100
scalar . 	mytime 	1800
scalar . 	rep 	0
scalar . 	ttl 	1000
scalar . 	variance 	0.05
scalar . 	window 	60
scalar abilene_nodelay_network.content_distribution 	repo-0 	5
scalar abilene_nodelay_network.content_distribution 	repo-1 	8
scalar abilene_nodelay_network.content_distribution 	repo-2 	9
scalar abilene_nodelay_network.content_distribution 	repo-3 	0
scalar abilene_nodelay_network.content_distribution 	repo-4 	1
scalar abilene_nodelay_network.content_distribution 	repo-5 	7
scalar abilene_nodelay_network.content_distribution 	repo-6 	6
scalar abilene_nodelay_network.content_distribution 	repo-7 	2
scalar abilene_nodelay_network.content_distribution 	repo-8 	4
scalar abilene_nodelay_network.content_distribution 	repo-9 	10
scalar abilene_nodelay_network.content_distribution 	repo-10 	3
scalar abilene_nodelay_network.content_distribution 	client-0 	10
scalar abilene_nodelay_network.content_distribution 	client-1 	9
scalar abilene_nodelay_network.content_distribution 	client-2 	8
scalar abilene_nodelay_network.content_distribution 	client-3 	7
scalar abilene_nodelay_network.content_distribution 	client-4 	3
scalar abilene_nodelay_network.content_distribution 	client-5 	6
scalar abilene_nodelay_network.content_distribution 	client-6 	5
scalar abilene_nodelay_network.content_distribution 	client-7 	1
scalar abilene_nodelay_network.content_distribution 	client-8 	4
scalar abilene_nodelay_network.content_distribution 	client-9 	0
scalar abilene_nodelay_network.content_distribution 	client-10 	2
scalar abilene_nodelay_network.content_distribution 	repo-0_card 	90891
scalar abilene_nodelay_network.content_distribution 	repo-0_price 	0
scalar abilene_nodelay_network.content_distribution 	repo-1_card 	90362
scalar abilene_nodelay_network.content_distribution 	repo-1_price 	0
scalar abilene_nodelay_network.content_distribution 	repo-2_card 	90927
scalar abilene_nodelay_network.content_distribution 	repo-2_price 	0
scalar abilene_nodelay_network.content_distribution 	repo-3_card 	91098
scalar abilene_nodelay_network.content_distribution 	repo-3_price 	0
scalar abilene_nodelay_network.content_distribution 	repo-4_card 	91231
scalar abilene_nodelay_network.content_distribution 	repo-4_price 	0
scalar abilene_nodelay_network.content_distribution 	repo-5_card 	90932
scalar abilene_nodelay_network.content_distribution 	repo-5_price 	0
scalar abilene_nodelay_network.content_distribution 	repo-6_card 	90752
scalar abilene_nodelay_network.content_distribution 	repo-6_price 	0
scalar abilene_nodelay_network.content_distribution 	repo-7_card 	90980
scalar abilene_nodelay_network.content_distribution 	repo-7_price 	0
scalar abilene_nodelay_network.content_distribution 	repo-8_card 	90629
scalar abilene_nodelay_network.content_distribution 	repo-8_price 	0
scalar abilene_nodelay_network.content_distribution 	repo-9_card 	91219
scalar abilene_nodelay_network.content_distribution 	repo-9_price 	0
scalar abilene_nodelay_network.content_distribution 	repo-10_card 	90979
scalar abilene_nodelay_network.content_distribution 	repo-10_price 	0
scalar abilene_nodelay_network.statistics 	stabilization_time 	292.5
scalar abilene_nodelay_network.statistics 	p_hit 	0.13762326411064
scalar abilene_nodelay_network.statistics 	interests 	723843
scalar abilene_nodelay_network.statistics 	data 	314493.72727273
scalar abilene_nodelay_network.statistics 	hdistance 	1.3668455831422
scalar abilene_nodelay_network.statistics 	avg_time 	0
scalar abilene_nodelay_network.statistics 	downloads 	1980753
scalar abilene_nodelay_network.statistics 	total_cost 	0
scalar abilene_nodelay_network.statistics 	total_replicas 	1000000
scalar abilene_nodelay_network.statistics 	"representations_downloaded 0.446779:0:0:0:0.553221:" 	0
scalar abilene_nodelay_network.statistics 	"slots_per_representation 100:233:500:833:1167:" 	0
scalar abilene_nodelay_network.statistics 	inner_hit 	2168.1011494114
scalar abilene_nodelay_network.statistics 	execution_time 	147
scalar abilene_nodelay_network.node[0].core_layer 	interests[0] 	437017
scalar abilene_nodelay_network.node[0].core_layer 	repo_load[0] 	209212
scalar abilene_nodelay_network.node[0].core_layer 	data[0] 	133614
scalar abilene_nodelay_network.node[0].core_layer 	slots_sent[face$o[1]->client[0]] 	130566697
scalar abilene_nodelay_network.node[0].core_layer 	slots_sent[face$o[2]->node[1]] 	59745385
scalar abilene_nodelay_network.node[0].core_layer 	slots_sent[face$o[3]->node[10]] 	17267943
scalar abilene_nodelay_network.node[0].content_store 	p_hit[0] 	0.21553166123972
scalar abilene_nodelay_network.node[0].content_store 	hits[0] 	94191
scalar abilene_nodelay_network.node[0].content_store 	misses[0] 	342826
scalar abilene_nodelay_network.node[0].content_store 	decision_yes[0] 	72457
scalar abilene_nodelay_network.node[0].content_store 	decision_no[0] 	270369
scalar abilene_nodelay_network.node[0].content_store 	decision_ratio[0] 	0.21135211448373
scalar abilene_nodelay_network.node[0].proactive_component 	hdistance[0].proactive_component 	2.2972759748047
scalar abilene_nodelay_network.node[0].proactive_component 	downloads[0].proactive_component 	158442
scalar abilene_nodelay_network.node[0].proactive_component 	avg_time[0].proactive_component 	0
scalar abilene_nodelay_network.node[1].core_layer 	interests[1] 	874089
scalar abilene_nodelay_network.node[1].core_layer 	repo_load[1] 	233528
scalar abilene_nodelay_network.node[1].core_layer 	data[1] 	411592
scalar abilene_nodelay_network.node[1].core_layer 	slots_sent[face$o[1]->client[1]] 	118646487
scalar abilene_nodelay_network.node[1].core_layer 	slots_sent[face$o[2]->node[0]] 	72578456
scalar abilene_nodelay_network.node[1].core_layer 	slots_sent[face$o[3]->node[10]] 	54681289
scalar abilene_nodelay_network.node[1].core_layer 	slots_sent[face$o[4]->node[2]] 	147683947
scalar abilene_nodelay_network.node[1].content_store 	p_hit[1] 	0.11322302420005
scalar abilene_nodelay_network.node[1].content_store 	hits[1] 	98967
scalar abilene_nodelay_network.node[1].content_store 	misses[1] 	775122
scalar abilene_nodelay_network.node[1].content_store 	decision_yes[1] 	215354
scalar abilene_nodelay_network.node[1].content_store 	decision_no[1] 	429766
scalar abilene_nodelay_network.node[1].content_store 	decision_ratio[1] 	0.33382006448413
scalar abilene_nodelay_network.node[1].proactive_component 	hdistance[1].proactive_component 	2.3476537367319
scalar abilene_nodelay_network.node[1].proactive_component 	downloads[1].proactive_component 	327947
scalar abilene_nodelay_network.node[1].proactive_component 	avg_time[1].proactive_component 	0
scalar abilene_nodelay_network.node[2].core_layer 	interests[2] 	1204913
scalar abilene_nodelay_network.node[2].core_layer 	repo_load[2] 	249539
scalar abilene_nodelay_network.node[2].core_layer 	data[2] 	620262
scalar abilene_nodelay_network.node[2].core_layer 	slots_sent[face$o[1]->client[2]] 	115902785
scalar abilene_nodelay_network.node[2].core_layer 	slots_sent[face$o[2]->node[1]] 	159704728
scalar abilene_nodelay_network.node[2].core_layer 	slots_sent[face$o[3]->node[3]] 	190745702
scalar abilene_nodelay_network.node[2].core_layer 	slots_sent[face$o[4]->node[8]] 	75816500
scalar abilene_nodelay_network.node[2].content_store 	p_hit[2] 	0.087828747801709
scalar abilene_nodelay_network.node[2].content_store 	hits[2] 	105826
scalar abilene_nodelay_network.node[2].content_store 	misses[2] 	1099087
scalar abilene_nodelay_network.node[2].content_store 	decision_yes[2] 	323697
scalar abilene_nodelay_network.node[2].content_store 	decision_no[2] 	546104
scalar abilene_nodelay_network.node[2].content_store 	decision_ratio[2] 	0.3721506413536
scalar abilene_nodelay_network.node[2].proactive_component 	hdistance[2].proactive_component 	2.3335539055671
scalar abilene_nodelay_network.node[2].proactive_component 	downloads[2].proactive_component 	451855
scalar abilene_nodelay_network.node[2].proactive_component 	avg_time[2].proactive_component 	0
scalar abilene_nodelay_network.node[3].core_layer 	interests[3] 	1119633
scalar abilene_nodelay_network.node[3].core_layer 	repo_load[3] 	233822
scalar abilene_nodelay_network.node[3].core_layer 	data[3] 	569978
scalar abilene_nodelay_network.node[3].core_layer 	slots_sent[face$o[1]->client[3]] 	123339673
scalar abilene_nodelay_network.node[3].core_layer 	slots_sent[face$o[2]->node[2]] 	189540132
scalar abilene_nodelay_network.node[3].core_layer 	slots_sent[face$o[3]->node[4]] 	117522048
scalar abilene_nodelay_network.node[3].core_layer 	slots_sent[face$o[4]->node[7]] 	84120584
scalar abilene_nodelay_network.node[3].content_store 	p_hit[3] 	0.099353984743215
scalar abilene_nodelay_network.node[3].content_store 	hits[3] 	111240
scalar abilene_nodelay_network.node[3].content_store 	misses[3] 	1008393
scalar abilene_nodelay_network.node[3].content_store 	decision_yes[3] 	298017
scalar abilene_nodelay_network.node[3].content_store 	decision_no[3] 	505783
scalar abilene_nodelay_network.node[3].content_store 	decision_ratio[3] 	0.37076013933814
scalar abilene_nodelay_network.node[3].proactive_component 	hdistance[3].proactive_component 	2.3683903305016
scalar abilene_nodelay_network.node[3].proactive_component 	downloads[3].proactive_component 	414582
scalar abilene_nodelay_network.node[3].proactive_component 	avg_time[3].proactive_component 	0
scalar abilene_nodelay_network.node[4].core_layer 	interests[4] 	631649
scalar abilene_nodelay_network.node[4].core_layer 	repo_load[4] 	215669
scalar abilene_nodelay_network.node[4].core_layer 	data[4] 	258149
scalar abilene_nodelay_network.node[4].core_layer 	slots_sent[face$o[1]->client[4]] 	126917189
scalar abilene_nodelay_network.node[4].core_layer 	slots_sent[face$o[2]->node[3]] 	104904870
scalar abilene_nodelay_network.node[4].core_layer 	slots_sent[face$o[3]->node[5]] 	63429358
scalar abilene_nodelay_network.node[4].content_store 	p_hit[4] 	0.15797064508928
scalar abilene_nodelay_network.node[4].content_store 	hits[4] 	99782
scalar abilene_nodelay_network.node[4].content_store 	misses[4] 	531867
scalar abilene_nodelay_network.node[4].content_store 	decision_yes[4] 	136751
scalar abilene_nodelay_network.node[4].content_store 	decision_no[4] 	337067
scalar abilene_nodelay_network.node[4].content_store 	decision_ratio[4] 	0.28861503784153
scalar abilene_nodelay_network.node[4].proactive_component 	hdistance[4].proactive_component 	2.3624776560193
scalar abilene_nodelay_network.node[4].proactive_component 	downloads[4].proactive_component 	231606
scalar abilene_nodelay_network.node[4].proactive_component 	avg_time[4].proactive_component 	0
scalar abilene_nodelay_network.node[5].core_layer 	interests[5] 	487530
scalar abilene_nodelay_network.node[5].core_layer 	repo_load[5] 	230393
scalar abilene_nodelay_network.node[5].core_layer 	data[5] 	160102
scalar abilene_nodelay_network.node[5].core_layer 	slots_sent[face$o[1]->client[5]] 	117623376
scalar abilene_nodelay_network.node[5].core_layer 	slots_sent[face$o[2]->node[4]] 	54206169
scalar abilene_nodelay_network.node[5].core_layer 	slots_sent[face$o[3]->node[6]] 	40810603
scalar abilene_nodelay_network.node[5].content_store 	p_hit[5] 	0.17257399544643
scalar abilene_nodelay_network.node[5].content_store 	hits[5] 	84135
scalar abilene_nodelay_network.node[5].content_store 	misses[5] 	403395
scalar abilene_nodelay_network.node[5].content_store 	decision_yes[5] 	86057
scalar abilene_nodelay_network.node[5].content_store 	decision_no[5] 	304438
scalar abilene_nodelay_network.node[5].content_store 	decision_ratio[5] 	0.22037926221847
scalar abilene_nodelay_network.node[5].proactive_component 	hdistance[5].proactive_component 	2.1927060196212
scalar abilene_nodelay_network.node[5].proactive_component 	downloads[5].proactive_component 	186839
scalar abilene_nodelay_network.node[5].proactive_component 	avg_time[5].proactive_component 	0
scalar abilene_nodelay_network.node[6].core_layer 	interests[6] 	551929
scalar abilene_nodelay_network.node[6].core_layer 	repo_load[6] 	208783
scalar abilene_nodelay_network.node[6].core_layer 	data[6] 	209942
scalar abilene_nodelay_network.node[6].core_layer 	slots_sent[face$o[1]->client[6]] 	128290089
scalar abilene_nodelay_network.node[6].core_layer 	slots_sent[face$o[2]->node[5]] 	44403661
scalar abilene_nodelay_network.node[6].core_layer 	slots_sent[face$o[3]->node[7]] 	85879311
scalar abilene_nodelay_network.node[6].content_store 	p_hit[6] 	0.176580683385
scalar abilene_nodelay_network.node[6].content_store 	hits[6] 	97460
scalar abilene_nodelay_network.node[6].content_store 	misses[6] 	454469
scalar abilene_nodelay_network.node[6].content_store 	decision_yes[6] 	111650
scalar abilene_nodelay_network.node[6].content_store 	decision_no[6] 	307075
scalar abilene_nodelay_network.node[6].content_store 	decision_ratio[6] 	0.26664278464386
scalar abilene_nodelay_network.node[6].proactive_component 	hdistance[6].proactive_component 	2.2484112084723
scalar abilene_nodelay_network.node[6].proactive_component 	downloads[6].proactive_component 	201883
scalar abilene_nodelay_network.node[6].proactive_component 	avg_time[6].proactive_component 	0
scalar abilene_nodelay_network.node[7].core_layer 	interests[7] 	804039
scalar abilene_nodelay_network.node[7].core_layer 	repo_load[7] 	231267
scalar abilene_nodelay_network.node[7].core_layer 	data[7] 	360259
scalar abilene_nodelay_network.node[7].core_layer 	slots_sent[face$o[1]->client[7]] 	127594834
scalar abilene_nodelay_network.node[7].core_layer 	slots_sent[face$o[2]->node[3]] 	79331367
scalar abilene_nodelay_network.node[7].core_layer 	slots_sent[face$o[3]->node[6]] 	99314147
scalar abilene_nodelay_network.node[7].core_layer 	slots_sent[face$o[4]->node[8]] 	69686005
scalar abilene_nodelay_network.node[7].content_store 	p_hit[7] 	0.13323731809029
scalar abilene_nodelay_network.node[7].content_store 	hits[7] 	107128
scalar abilene_nodelay_network.node[7].content_store 	misses[7] 	696911
scalar abilene_nodelay_network.node[7].content_store 	decision_yes[7] 	189683
scalar abilene_nodelay_network.node[7].content_store 	decision_no[7] 	401843
scalar abilene_nodelay_network.node[7].content_store 	decision_ratio[7] 	0.32066722341875
scalar abilene_nodelay_network.node[7].proactive_component 	hdistance[7].proactive_component 	2.2177946948971
scalar abilene_nodelay_network.node[7].proactive_component 	downloads[7].proactive_component 	294245
scalar abilene_nodelay_network.node[7].proactive_component 	avg_time[7].proactive_component 	0
scalar abilene_nodelay_network.node[8].core_layer 	interests[8] 	762394
scalar abilene_nodelay_network.node[8].core_layer 	repo_load[8] 	221802
scalar abilene_nodelay_network.node[8].core_layer 	data[8] 	337943
scalar abilene_nodelay_network.node[8].core_layer 	slots_sent[face$o[1]->client[8]] 	129135363
scalar abilene_nodelay_network.node[8].core_layer 	slots_sent[face$o[2]->node[2]] 	70186820
scalar abilene_nodelay_network.node[8].core_layer 	slots_sent[face$o[3]->node[7]] 	68417766
scalar abilene_nodelay_network.node[8].core_layer 	slots_sent[face$o[4]->node[9]] 	90634821
scalar abilene_nodelay_network.node[8].content_store 	p_hit[8] 	0.14130226628226
scalar abilene_nodelay_network.node[8].content_store 	hits[8] 	107728
scalar abilene_nodelay_network.node[8].content_store 	misses[8] 	654666
scalar abilene_nodelay_network.node[8].content_store 	decision_yes[8] 	177859
scalar abilene_nodelay_network.node[8].content_store 	decision_no[8] 	381886
scalar abilene_nodelay_network.node[8].content_store 	decision_ratio[8] 	0.31775004689635
scalar abilene_nodelay_network.node[8].proactive_component 	hdistance[8].proactive_component 	2.1498668873219
scalar abilene_nodelay_network.node[8].proactive_component 	downloads[8].proactive_component 	277960
scalar abilene_nodelay_network.node[8].proactive_component 	avg_time[8].proactive_component 	0
scalar abilene_nodelay_network.node[9].core_layer 	interests[9] 	554648
scalar abilene_nodelay_network.node[9].core_layer 	repo_load[9] 	211696
scalar abilene_nodelay_network.node[9].core_layer 	data[9] 	211477
scalar abilene_nodelay_network.node[9].core_layer 	slots_sent[face$o[1]->client[9]] 	126043997
scalar abilene_nodelay_network.node[9].core_layer 	slots_sent[face$o[2]->node[10]] 	51880005
scalar abilene_nodelay_network.node[9].core_layer 	slots_sent[face$o[3]->node[8]] 	78067348
scalar abilene_nodelay_network.node[9].content_store 	p_hit[9] 	0.17288262104975
scalar abilene_nodelay_network.node[9].content_store 	hits[9] 	95889
scalar abilene_nodelay_network.node[9].content_store 	misses[9] 	458759
scalar abilene_nodelay_network.node[9].content_store 	decision_yes[9] 	112165
scalar abilene_nodelay_network.node[9].content_store 	decision_no[9] 	311008
scalar abilene_nodelay_network.node[9].content_store 	decision_ratio[9] 	0.26505708067386
scalar abilene_nodelay_network.node[9].proactive_component 	hdistance[9].proactive_component 	2.1513552270255
scalar abilene_nodelay_network.node[9].proactive_component 	downloads[9].proactive_component 	205021
scalar abilene_nodelay_network.node[9].proactive_component 	avg_time[9].proactive_component 	0
scalar abilene_nodelay_network.node[10].core_layer 	interests[10] 	534432
scalar abilene_nodelay_network.node[10].core_layer 	repo_load[10] 	229482
scalar abilene_nodelay_network.node[10].core_layer 	data[10] 	186113
scalar abilene_nodelay_network.node[10].core_layer 	slots_sent[face$o[1]->client[10]] 	123227008
scalar abilene_nodelay_network.node[10].core_layer 	slots_sent[face$o[2]->node[0]] 	18094563
scalar abilene_nodelay_network.node[10].core_layer 	slots_sent[face$o[3]->node[1]] 	51491805
scalar abilene_nodelay_network.node[10].core_layer 	slots_sent[face$o[4]->node[9]] 	50192934
scalar abilene_nodelay_network.node[10].content_store 	p_hit[10] 	0.17485479911383
scalar abilene_nodelay_network.node[10].content_store 	hits[10] 	93448
scalar abilene_nodelay_network.node[10].content_store 	misses[10] 	440984
scalar abilene_nodelay_network.node[10].content_store 	decision_yes[10] 	98611
scalar abilene_nodelay_network.node[10].content_store 	decision_no[10] 	316984
scalar abilene_nodelay_network.node[10].content_store 	decision_ratio[10] 	0.23727667560967
scalar abilene_nodelay_network.node[10].proactive_component 	hdistance[10].proactive_component 	2.0571008270914
scalar abilene_nodelay_network.node[10].proactive_component 	downloads[10].proactive_component 	199857
scalar abilene_nodelay_network.node[10].proactive_component 	avg_time[10].proactive_component 	0
scalar abilene_nodelay_network.client[0] 	hdistance[0].real 	1.497412232477
scalar abilene_nodelay_network.client[0] 	downloads[0].real 	180078
scalar abilene_nodelay_network.client[0] 	avg_time[0].real 	0
scalar abilene_nodelay_network.client[1] 	hdistance[1].real 	1.3898114488986
scalar abilene_nodelay_network.client[1] 	downloads[1].real 	179633
scalar abilene_nodelay_network.client[1] 	avg_time[1].real 	0
scalar abilene_nodelay_network.client[2] 	hdistance[2].real 	1.2585026833035
scalar abilene_nodelay_network.client[2] 	downloads[2].real 	180002
scalar abilene_nodelay_network.client[2] 	avg_time[2].real 	0
scalar abilene_nodelay_network.client[3] 	hdistance[3].real 	1.2595285035959
scalar abilene_nodelay_network.client[3] 	downloads[3].real 	180065
scalar abilene_nodelay_network.client[3] 	avg_time[3].real 	0
scalar abilene_nodelay_network.client[4] 	hdistance[4].real 	1.4220552918179
scalar abilene_nodelay_network.client[4] 	downloads[4].real 	179050
scalar abilene_nodelay_network.client[4] 	avg_time[4].real 	0
scalar abilene_nodelay_network.client[5] 	hdistance[5].real 	1.568050813639
scalar abilene_nodelay_network.client[5] 	downloads[5].real 	180424
scalar abilene_nodelay_network.client[5] 	avg_time[5].real 	0
scalar abilene_nodelay_network.client[6] 	hdistance[6].real 	1.4326211973885
scalar abilene_nodelay_network.client[6] 	downloads[6].real 	179975
scalar abilene_nodelay_network.client[6] 	avg_time[6].real 	0
scalar abilene_nodelay_network.client[7] 	hdistance[7].real 	1.2468659434371
scalar abilene_nodelay_network.client[7] 	downloads[7].real 	180118
scalar abilene_nodelay_network.client[7] 	avg_time[7].real 	0
scalar abilene_nodelay_network.client[8] 	hdistance[8].real 	1.1994754432173
scalar abilene_nodelay_network.client[8] 	downloads[8].real 	180724
scalar abilene_nodelay_network.client[8] 	avg_time[8].real 	0
scalar abilene_nodelay_network.client[9] 	hdistance[9].real 	1.3506573268707
scalar abilene_nodelay_network.client[9] 	downloads[9].real 	180732
scalar abilene_nodelay_network.client[9] 	avg_time[9].real 	0
scalar abilene_nodelay_network.client[10] 	hdistance[10].real 	1.4103205299191
scalar abilene_nodelay_network.client[10] 	downloads[10].real 	179952
scalar abilene_nodelay_network.client[10] 	avg_time[10].real 	0
