version 2
run General-3755-20140423-20:06:58-30819
attr D costprob0.01
attr F nrr
attr R lru
attr a 0
attr configname General
attr csize 2
attr ctlg 10^3
attr datetime 20140423-20:06:58
attr experiment General
attr inifile omnetpp.ini
attr iterationvars "$net=simple_scenario, $rep=11, $priceratiovalue=5, $a=0, $ctlg=10^3, $F=nrr, $ttl=1000, $D=costprob0.01, $R=lru, $csize=2"
attr iterationvars2 "$net=simple_scenario, $rep=11, $priceratiovalue=5, $a=0, $ctlg=10^3, $F=nrr, $ttl=1000, $D=costprob0.01, $R=lru, $csize=2, $repetition=0"
attr measurement "$net=simple_scenario, $rep=11, $priceratiovalue=5, $a=0, $ctlg=10^3, $F=nrr, $ttl=1000, $D=costprob0.01, $R=lru, $csize=2"
attr net simple_scenario
attr network networks.${net=simple_scenario}_network
attr priceratiovalue 5
attr processid 30819
attr rep 11
attr repetition 0
attr replication #0
attr resultdir results
attr runnumber 3755
attr seedset 11
attr ttl 1000

scalar . 	a 	0
scalar . 	csize 	2
scalar . 	priceratiovalue 	5
scalar . 	rep 	11
scalar . 	ttl 	1000
scalar simple_scenario_network.content_distribution 	repo-0 	3
scalar simple_scenario_network.content_distribution 	repo-1 	4
scalar simple_scenario_network.content_distribution 	client-0 	0
scalar simple_scenario_network.content_distribution 	repo-0_card 	503
scalar simple_scenario_network.content_distribution 	repo-1_card 	497
scalar simple_scenario_network.statistics 	p_hit 	0.0020273553345136
scalar simple_scenario_network.statistics 	interests 	107430.6
scalar simple_scenario_network.statistics 	data 	71523.4
scalar simple_scenario_network.statistics 	hdistance 	2.9858300609909
scalar simple_scenario_network.statistics 	avg_time 	0.001999701389
scalar simple_scenario_network.statistics 	downloads 	179535
scalar simple_scenario_network.statistics 	total_cost 	88843
scalar simple_scenario_network.node[0].core_layer 	interests[0] 	179536
scalar simple_scenario_network.node[0].core_layer 	data[0] 	179170
scalar simple_scenario_network.node[0].core_layer 	repo_int[0] 	178447
scalar simple_scenario_network.node[0].content_store 	p_hit[0] 	0.0020385883611086
scalar simple_scenario_network.node[0].content_store 	hits[0] 	366
scalar simple_scenario_network.node[0].content_store 	misses[0] 	179170
scalar simple_scenario_network.node[1].core_layer 	interests[1] 	90163
scalar simple_scenario_network.node[1].core_layer 	data[1] 	89793
scalar simple_scenario_network.node[1].content_store 	p_hit[1] 	0.0041036788926722
scalar simple_scenario_network.node[1].content_store 	hits[1] 	370
scalar simple_scenario_network.node[1].content_store 	misses[1] 	89793
scalar simple_scenario_network.node[2].core_layer 	interests[2] 	89007
scalar simple_scenario_network.node[2].core_layer 	data[2] 	88654
scalar simple_scenario_network.node[2].content_store 	p_hit[2] 	0.0039659802038042
scalar simple_scenario_network.node[2].content_store 	hits[2] 	353
scalar simple_scenario_network.node[2].content_store 	misses[2] 	88654
scalar simple_scenario_network.node[3].core_layer 	interests[3] 	89793
scalar simple_scenario_network.node[3].core_layer 	repo_load[3] 	89793
scalar simple_scenario_network.node[3].core_layer 	data[3] 	0
scalar simple_scenario_network.node[3].content_store 	p_hit[3] 	0
scalar simple_scenario_network.node[3].content_store 	hits[3] 	0
scalar simple_scenario_network.node[3].content_store 	misses[3] 	89793
scalar simple_scenario_network.node[4].core_layer 	interests[4] 	88654
scalar simple_scenario_network.node[4].core_layer 	repo_load[4] 	88654
scalar simple_scenario_network.node[4].core_layer 	data[4] 	0
scalar simple_scenario_network.node[4].content_store 	p_hit[4] 	0
scalar simple_scenario_network.node[4].content_store 	hits[4] 	0
scalar simple_scenario_network.node[4].content_store 	misses[4] 	88654
scalar simple_scenario_network.client[0] 	hdistance[0] 	2.9858300609909
scalar simple_scenario_network.client[0] 	downloads[0] 	179535
scalar simple_scenario_network.client[0] 	avg_time[0] 	0.001999701389
