version 2
run General-7-20140625-11:03:50-10525
attr D fix0.00001
attr F nrr
attr R lru
attr a 1
attr configname General
attr csize 1e3
attr ctlg 1e5
attr datetime 20140625-11:03:50
attr experiment General
attr inifile omnetpp.ini
attr iterationvars "$net=abilene_cost, $rep=1, $priceratiovalue=10, $weights=0.333_0.333_0.334, $lambda=100, $a=1, $ctlg=1e5, $F=nrr, $ttl=1000, $D=fix0.00001, $xi=1, $R=lru, $csize=1e3, $pricebits=0, $mytime=1800"
attr iterationvars2 "$net=abilene_cost, $rep=1, $priceratiovalue=10, $weights=0.333_0.333_0.334, $lambda=100, $a=1, $ctlg=1e5, $F=nrr, $ttl=1000, $D=fix0.00001, $xi=1, $R=lru, $csize=1e3, $pricebits=0, $mytime=1800, $repetition=0"
attr lambda 100
attr measurement "$net=abilene_cost, $rep=1, $priceratiovalue=10, $weights=0.333_0.333_0.334, $lambda=100, $a=1, $ctlg=1e5, $F=nrr, $ttl=1000, $D=fix0.00001, $xi=1, $R=lru, $csize=1e3, $pricebits=0, $mytime=1800"
attr mytime 1800
attr net abilene_cost
attr network networks.${net=abilene_cost}_network
attr pricebits 0
attr priceratiovalue 10
attr processid 10525
attr rep 1
attr repetition 0
attr replication #0
attr resultdir results
attr runnumber 7
attr seedset 1
attr ttl 1000
attr weights 0.333_0.333_0.334
attr xi 1

scalar . 	a 	1
scalar . 	csize 	1e3
scalar . 	ctlg 	1e5
scalar . 	lambda 	100
scalar . 	mytime 	1800
scalar . 	pricebits 	0
scalar . 	priceratiovalue 	10
scalar . 	rep 	1
scalar . 	ttl 	1000
scalar . 	xi 	1
scalar abilene_cost_network.content_distribution 	repo-0 	11
scalar abilene_cost_network.content_distribution 	repo-1 	12
scalar abilene_cost_network.content_distribution 	repo-2 	13
scalar abilene_cost_network.content_distribution 	client-0 	5
scalar abilene_cost_network.content_distribution 	client-1 	0
scalar abilene_cost_network.content_distribution 	client-2 	9
scalar abilene_cost_network.content_distribution 	repo-0_card 	33396
scalar abilene_cost_network.content_distribution 	repo-1_card 	33039
scalar abilene_cost_network.content_distribution 	repo-2_card 	33565
scalar abilene_cost_network.statistics 	repo_popularity[0] 	0.28686251265602
scalar abilene_cost_network.statistics 	repo_popularity[1] 	0.2886063426465
scalar abilene_cost_network.statistics 	repo_popularity[2] 	0.42453114469748
scalar abilene_cost_network.statistics 	stabilization_time 	36060
scalar abilene_cost_network.node[1].face$o[4].channel 	price[1] 	0
scalar abilene_cost_network.node[1].face$o[4].channel 	represented_price[1] 	0
scalar abilene_cost_network.node[7].face$o[4].channel 	price[7] 	0
scalar abilene_cost_network.node[7].face$o[4].channel 	represented_price[7] 	0
scalar abilene_cost_network.node[10].face$o[4].channel 	price[10] 	0
scalar abilene_cost_network.node[10].face$o[4].channel 	represented_price[10] 	0
scalar abilene_cost_network.node[11].face$o[1].channel 	price[11] 	0
scalar abilene_cost_network.node[11].face$o[1].channel 	represented_price[11] 	0
scalar abilene_cost_network.node[12].face$o[1].channel 	price[12] 	1
scalar abilene_cost_network.node[12].face$o[1].channel 	represented_price[12] 	1
scalar abilene_cost_network.node[13].face$o[1].channel 	price[13] 	10
scalar abilene_cost_network.node[13].face$o[1].channel 	represented_price[13] 	10
scalar abilene_cost_network.statistics 	p_hit 	0.099800819485545
scalar abilene_cost_network.statistics 	interests 	138065.71428571
scalar abilene_cost_network.statistics 	data 	99562.214285714
scalar abilene_cost_network.statistics 	hdistance 	3.2384813505847
scalar abilene_cost_network.statistics 	avg_time 	0.012797915596
scalar abilene_cost_network.statistics 	downloads 	537031
scalar abilene_cost_network.statistics 	total_cost 	1256240
scalar abilene_cost_network.statistics 	total_replicas 	100000
scalar abilene_cost_network.statistics 	inner_hit 	0.35923810729734
scalar abilene_cost_network.statistics 	interests_sent 	539051
scalar abilene_cost_network.node[0].core_layer 	interests[0] 	181547
scalar abilene_cost_network.node[0].core_layer 	data[0] 	147531
scalar abilene_cost_network.node[0].core_layer 	repo_int[0] 	344109
scalar abilene_cost_network.node[0].content_store 	p_hit[0] 	0.18498240125147
scalar abilene_cost_network.node[0].content_store 	hits[0] 	33583
scalar abilene_cost_network.node[0].content_store 	misses[0] 	147964
scalar abilene_cost_network.node[0].content_store 	decision_yes[0] 	1
scalar abilene_cost_network.node[0].content_store 	decision_no[0] 	147530
scalar abilene_cost_network.node[0].content_store 	decision_ratio[0] 	6.7782364384434e-06
scalar abilene_cost_network.node[1].core_layer 	interests[1] 	224058
scalar abilene_cost_network.node[1].core_layer 	data[1] 	203026
scalar abilene_cost_network.node[1].content_store 	p_hit[1] 	0.093868551892813
scalar abilene_cost_network.node[1].content_store 	hits[1] 	21032
scalar abilene_cost_network.node[1].content_store 	misses[1] 	203026
scalar abilene_cost_network.node[1].content_store 	decision_yes[1] 	2
scalar abilene_cost_network.node[1].content_store 	decision_no[1] 	203024
scalar abilene_cost_network.node[1].content_store 	decision_ratio[1] 	9.8509550500921e-06
scalar abilene_cost_network.node[2].core_layer 	interests[2] 	143155
scalar abilene_cost_network.node[2].core_layer 	data[2] 	132658
scalar abilene_cost_network.node[2].content_store 	p_hit[2] 	0.073270231567182
scalar abilene_cost_network.node[2].content_store 	hits[2] 	10489
scalar abilene_cost_network.node[2].content_store 	misses[2] 	132666
scalar abilene_cost_network.node[2].content_store 	decision_yes[2] 	3
scalar abilene_cost_network.node[2].content_store 	decision_no[2] 	132655
scalar abilene_cost_network.node[2].content_store 	decision_ratio[2] 	2.2614542658566e-05
scalar abilene_cost_network.node[3].core_layer 	interests[3] 	138275
scalar abilene_cost_network.node[3].core_layer 	data[3] 	130681
scalar abilene_cost_network.node[3].content_store 	p_hit[3] 	0.054926776351474
scalar abilene_cost_network.node[3].content_store 	hits[3] 	7595
scalar abilene_cost_network.node[3].content_store 	misses[3] 	130680
scalar abilene_cost_network.node[3].content_store 	decision_yes[3] 	0
scalar abilene_cost_network.node[3].content_store 	decision_no[3] 	130681
scalar abilene_cost_network.node[3].content_store 	decision_ratio[3] 	0
scalar abilene_cost_network.node[4].core_layer 	interests[4] 	111485
scalar abilene_cost_network.node[4].core_layer 	data[4] 	95430
scalar abilene_cost_network.node[4].content_store 	p_hit[4] 	0.14401937480379
scalar abilene_cost_network.node[4].content_store 	hits[4] 	16056
scalar abilene_cost_network.node[4].content_store 	misses[4] 	95429
scalar abilene_cost_network.node[4].content_store 	decision_yes[4] 	3
scalar abilene_cost_network.node[4].content_store 	decision_no[4] 	95427
scalar abilene_cost_network.node[4].content_store 	decision_ratio[4] 	3.1436655139893e-05
scalar abilene_cost_network.node[5].core_layer 	interests[5] 	182349
scalar abilene_cost_network.node[5].core_layer 	data[5] 	153629
scalar abilene_cost_network.node[5].content_store 	p_hit[5] 	0.15061228742686
scalar abilene_cost_network.node[5].content_store 	hits[5] 	27464
scalar abilene_cost_network.node[5].content_store 	misses[5] 	154885
scalar abilene_cost_network.node[5].content_store 	decision_yes[5] 	0
scalar abilene_cost_network.node[5].content_store 	decision_no[5] 	153629
scalar abilene_cost_network.node[5].content_store 	decision_ratio[5] 	0
scalar abilene_cost_network.node[6].core_layer 	interests[6] 	47694
scalar abilene_cost_network.node[6].core_layer 	data[6] 	45011
scalar abilene_cost_network.node[6].content_store 	p_hit[6] 	0.056254455487063
scalar abilene_cost_network.node[6].content_store 	hits[6] 	2683
scalar abilene_cost_network.node[6].content_store 	misses[6] 	45011
scalar abilene_cost_network.node[6].content_store 	decision_yes[6] 	0
scalar abilene_cost_network.node[6].content_store 	decision_no[6] 	45011
scalar abilene_cost_network.node[6].content_store 	decision_ratio[6] 	0
scalar abilene_cost_network.node[7].core_layer 	interests[7] 	123002
scalar abilene_cost_network.node[7].core_layer 	data[7] 	118073
scalar abilene_cost_network.node[7].content_store 	p_hit[7] 	0.040015609502285
scalar abilene_cost_network.node[7].content_store 	hits[7] 	4922
scalar abilene_cost_network.node[7].content_store 	misses[7] 	118080
scalar abilene_cost_network.node[7].content_store 	decision_yes[7] 	1
scalar abilene_cost_network.node[7].content_store 	decision_no[7] 	118072
scalar abilene_cost_network.node[7].content_store 	decision_ratio[7] 	8.4693367662378e-06
scalar abilene_cost_network.node[8].core_layer 	interests[8] 	59736
scalar abilene_cost_network.node[8].core_layer 	data[8] 	50251
scalar abilene_cost_network.node[8].content_store 	p_hit[8] 	0.15878197401902
scalar abilene_cost_network.node[8].content_store 	hits[8] 	9485
scalar abilene_cost_network.node[8].content_store 	misses[8] 	50251
scalar abilene_cost_network.node[8].content_store 	decision_yes[8] 	0
scalar abilene_cost_network.node[8].content_store 	decision_no[8] 	50251
scalar abilene_cost_network.node[8].content_store 	decision_ratio[8] 	0
scalar abilene_cost_network.node[9].core_layer 	interests[9] 	191557
scalar abilene_cost_network.node[9].core_layer 	data[9] 	144018
scalar abilene_cost_network.node[9].content_store 	p_hit[9] 	0.24644361730451
scalar abilene_cost_network.node[9].content_store 	hits[9] 	47208
scalar abilene_cost_network.node[9].content_store 	misses[9] 	144349
scalar abilene_cost_network.node[9].content_store 	decision_yes[9] 	2
scalar abilene_cost_network.node[9].content_store 	decision_no[9] 	144016
scalar abilene_cost_network.node[9].content_store 	decision_ratio[9] 	1.3887152994765e-05
scalar abilene_cost_network.node[10].core_layer 	interests[10] 	185953
scalar abilene_cost_network.node[10].core_layer 	data[10] 	173563
scalar abilene_cost_network.node[10].content_store 	p_hit[10] 	0.066629739772953
scalar abilene_cost_network.node[10].content_store 	hits[10] 	12390
scalar abilene_cost_network.node[10].content_store 	misses[10] 	173563
scalar abilene_cost_network.node[10].content_store 	decision_yes[10] 	1
scalar abilene_cost_network.node[10].content_store 	decision_no[10] 	173562
scalar abilene_cost_network.node[10].content_store 	decision_ratio[10] 	5.7615966536647e-06
scalar abilene_cost_network.node[11].core_layer 	interests[11] 	120808
scalar abilene_cost_network.node[11].core_layer 	repo_load[11] 	120808
scalar abilene_cost_network.node[11].core_layer 	data[11] 	0
scalar abilene_cost_network.node[11].content_store 	p_hit[11] 	0
scalar abilene_cost_network.node[11].content_store 	hits[11] 	0
scalar abilene_cost_network.node[11].content_store 	misses[11] 	120808
scalar abilene_cost_network.node[11].content_store 	decision_yes[11] 	0
scalar abilene_cost_network.node[11].content_store 	decision_no[11] 	120808
scalar abilene_cost_network.node[11].content_store 	decision_ratio[11] 	0
scalar abilene_cost_network.node[12].core_layer 	interests[12] 	108530
scalar abilene_cost_network.node[12].core_layer 	repo_load[12] 	108530
scalar abilene_cost_network.node[12].core_layer 	data[12] 	0
scalar abilene_cost_network.node[12].content_store 	p_hit[12] 	0
scalar abilene_cost_network.node[12].content_store 	hits[12] 	0
scalar abilene_cost_network.node[12].content_store 	misses[12] 	108530
scalar abilene_cost_network.node[12].content_store 	decision_yes[12] 	0
scalar abilene_cost_network.node[12].content_store 	decision_no[12] 	108530
scalar abilene_cost_network.node[12].content_store 	decision_ratio[12] 	0
scalar abilene_cost_network.node[13].core_layer 	interests[13] 	114771
scalar abilene_cost_network.node[13].core_layer 	repo_load[13] 	114771
scalar abilene_cost_network.node[13].core_layer 	data[13] 	0
scalar abilene_cost_network.node[13].content_store 	p_hit[13] 	0
scalar abilene_cost_network.node[13].content_store 	hits[13] 	0
scalar abilene_cost_network.node[13].content_store 	misses[13] 	114771
scalar abilene_cost_network.node[13].content_store 	decision_yes[13] 	0
scalar abilene_cost_network.node[13].content_store 	decision_no[13] 	114771
scalar abilene_cost_network.node[13].content_store 	decision_ratio[13] 	0
scalar abilene_cost_network.client[0] 	hdistance[0] 	2.9043049662394
scalar abilene_cost_network.client[0] 	downloads[0] 	179351
scalar abilene_cost_network.client[0] 	avg_time[0] 	0.011999845318
scalar abilene_cost_network.client[0] 	interests_sent[0] 	179784
scalar abilene_cost_network.client[5] 	hdistance[5] 	4.1781036398532
scalar abilene_cost_network.client[5] 	downloads[5] 	178194
scalar abilene_cost_network.client[5] 	avg_time[5] 	0.015761646148
scalar abilene_cost_network.client[5] 	interests_sent[5] 	179450
scalar abilene_cost_network.client[9] 	hdistance[9] 	2.6330354456615
scalar abilene_cost_network.client[9] 	downloads[9] 	179486
scalar abilene_cost_network.client[9] 	avg_time[9] 	0.010632255322
scalar abilene_cost_network.client[9] 	interests_sent[9] 	179817
