version 2
run General-256-20140421-15:59:33-25681
attr D costprob0.1
attr F nrr
attr R lru
attr a 0.8
attr configname General
attr csize 10
attr ctlg 10^3
attr datetime 20140421-15:59:33
attr experiment General
attr inifile omnetpp.ini
attr iterationvars "$net=simple_scenario, $rep=4, $priceratiovalue=3, $a=0.8, $ctlg=10^3, $F=nrr, $ttl=1000, $D=costprob0.1, $R=lru, $csize=10"
attr iterationvars2 "$net=simple_scenario, $rep=4, $priceratiovalue=3, $a=0.8, $ctlg=10^3, $F=nrr, $ttl=1000, $D=costprob0.1, $R=lru, $csize=10, $repetition=0"
attr measurement "$net=simple_scenario, $rep=4, $priceratiovalue=3, $a=0.8, $ctlg=10^3, $F=nrr, $ttl=1000, $D=costprob0.1, $R=lru, $csize=10"
attr net simple_scenario
attr network networks.${net=simple_scenario}_network
attr priceratiovalue 3
attr processid 25681
attr rep 4
attr repetition 0
attr replication #0
attr resultdir results
attr runnumber 256
attr seedset 4
attr ttl 1000

scalar . 	a 	0.8
scalar . 	csize 	10
scalar . 	priceratiovalue 	3
scalar . 	rep 	4
scalar . 	ttl 	1000
scalar simple_scenario_network.content_distribution 	repo-0 	3
scalar simple_scenario_network.content_distribution 	repo-1 	4
scalar simple_scenario_network.content_distribution 	client-0 	0
scalar simple_scenario_network.content_distribution 	repo-0_card 	490
scalar simple_scenario_network.content_distribution 	repo-1_card 	510
scalar simple_scenario_network.statistics 	p_hit 	0.094272347853423
scalar simple_scenario_network.statistics 	interests 	96702.8
scalar simple_scenario_network.statistics 	data 	60762.8
scalar simple_scenario_network.statistics 	hdistance 	2.4370172509738
scalar simple_scenario_network.statistics 	avg_time 	0.001998148881
scalar simple_scenario_network.statistics 	downloads 	179700
scalar simple_scenario_network.statistics 	total_cost 	66383
scalar simple_scenario_network.node[0].core_layer 	interests[0] 	179700
scalar simple_scenario_network.node[0].core_layer 	data[0] 	169696
scalar simple_scenario_network.node[0].core_layer 	repo_int[0] 	134118
scalar simple_scenario_network.node[0].content_store 	p_hit[0] 	0.055670562047858
scalar simple_scenario_network.node[0].content_store 	hits[0] 	10004
scalar simple_scenario_network.node[0].content_store 	misses[0] 	169696
scalar simple_scenario_network.node[1].core_layer 	interests[1] 	92979
scalar simple_scenario_network.node[1].core_layer 	data[1] 	68409
scalar simple_scenario_network.node[1].content_store 	p_hit[1] 	0.26425321846869
scalar simple_scenario_network.node[1].content_store 	hits[1] 	24570
scalar simple_scenario_network.node[1].content_store 	misses[1] 	68409
scalar simple_scenario_network.node[2].core_layer 	interests[2] 	76717
scalar simple_scenario_network.node[2].core_layer 	data[2] 	65709
scalar simple_scenario_network.node[2].content_store 	p_hit[2] 	0.14348840543817
scalar simple_scenario_network.node[2].content_store 	hits[2] 	11008
scalar simple_scenario_network.node[2].content_store 	misses[2] 	65709
scalar simple_scenario_network.node[3].core_layer 	interests[3] 	68409
scalar simple_scenario_network.node[3].core_layer 	repo_load[3] 	68409
scalar simple_scenario_network.node[3].core_layer 	data[3] 	0
scalar simple_scenario_network.node[3].content_store 	p_hit[3] 	0
scalar simple_scenario_network.node[3].content_store 	hits[3] 	0
scalar simple_scenario_network.node[3].content_store 	misses[3] 	68409
scalar simple_scenario_network.node[4].core_layer 	interests[4] 	65709
scalar simple_scenario_network.node[4].core_layer 	repo_load[4] 	65709
scalar simple_scenario_network.node[4].core_layer 	data[4] 	0
scalar simple_scenario_network.node[4].content_store 	p_hit[4] 	0
scalar simple_scenario_network.node[4].content_store 	hits[4] 	0
scalar simple_scenario_network.node[4].content_store 	misses[4] 	65709
scalar simple_scenario_network.client[0] 	hdistance[0] 	2.4370172509738
scalar simple_scenario_network.client[0] 	downloads[0] 	179700
scalar simple_scenario_network.client[0] 	avg_time[0] 	0.001998148881
