version 2
run General-473-20140424-12:48:08-13150
attr D costprob0.1
attr F nrr
attr R lru
attr a 0.8
attr configname General
attr csize 10
attr ctlg 10^3
attr datetime 20140424-12:48:08
attr experiment General
attr inifile omnetpp.ini
attr iterationvars "$net=simple_scenario, $rep=3, $priceratiovalue=3, $a=0.8, $ctlg=10^3, $F=nrr, $ttl=1000, $D=costprob0.1, $R=lru, $csize=10"
attr iterationvars2 "$net=simple_scenario, $rep=3, $priceratiovalue=3, $a=0.8, $ctlg=10^3, $F=nrr, $ttl=1000, $D=costprob0.1, $R=lru, $csize=10, $repetition=0"
attr measurement "$net=simple_scenario, $rep=3, $priceratiovalue=3, $a=0.8, $ctlg=10^3, $F=nrr, $ttl=1000, $D=costprob0.1, $R=lru, $csize=10"
attr net simple_scenario
attr network networks.${net=simple_scenario}_network
attr priceratiovalue 3
attr processid 13150
attr rep 3
attr repetition 0
attr replication #0
attr resultdir results
attr runnumber 473
attr seedset 3
attr ttl 1000

scalar . 	a 	0.8
scalar . 	csize 	10
scalar . 	priceratiovalue 	3
scalar . 	rep 	3
scalar . 	ttl 	1000
scalar simple_scenario_network.content_distribution 	repo-0 	3
scalar simple_scenario_network.content_distribution 	repo-1 	4
scalar simple_scenario_network.content_distribution 	client-0 	0
scalar simple_scenario_network.content_distribution 	repo-0_card 	524
scalar simple_scenario_network.content_distribution 	repo-1_card 	476
scalar simple_scenario_network.statistics 	p_hit 	0.097742457987447
scalar simple_scenario_network.statistics 	interests 	94828.8
scalar simple_scenario_network.statistics 	data 	58949.4
scalar simple_scenario_network.statistics 	hdistance 	2.3846518317019
scalar simple_scenario_network.statistics 	avg_time 	0.001997927599
scalar simple_scenario_network.statistics 	downloads 	179396
scalar simple_scenario_network.statistics 	total_cost 	64353
scalar simple_scenario_network.node[0].core_layer 	interests[0] 	179397
scalar simple_scenario_network.node[0].core_layer 	data[0] 	161694
scalar simple_scenario_network.node[0].core_layer 	repo_int[0] 	133053
scalar simple_scenario_network.node[0].content_store 	p_hit[0] 	0.098680579942808
scalar simple_scenario_network.node[0].content_store 	hits[0] 	17703
scalar simple_scenario_network.node[0].content_store 	misses[0] 	161694
scalar simple_scenario_network.node[1].core_layer 	interests[1] 	88151
scalar simple_scenario_network.node[1].core_layer 	data[1] 	70873
scalar simple_scenario_network.node[1].content_store 	p_hit[1] 	0.196004583045
scalar simple_scenario_network.node[1].content_store 	hits[1] 	17278
scalar simple_scenario_network.node[1].content_store 	misses[1] 	70873
scalar simple_scenario_network.node[2].core_layer 	interests[2] 	73543
scalar simple_scenario_network.node[2].core_layer 	data[2] 	62180
scalar simple_scenario_network.node[2].content_store 	p_hit[2] 	0.15450824687598
scalar simple_scenario_network.node[2].content_store 	hits[2] 	11363
scalar simple_scenario_network.node[2].content_store 	misses[2] 	62180
scalar simple_scenario_network.node[3].core_layer 	interests[3] 	70873
scalar simple_scenario_network.node[3].core_layer 	repo_load[3] 	70873
scalar simple_scenario_network.node[3].core_layer 	data[3] 	0
scalar simple_scenario_network.node[3].content_store 	p_hit[3] 	0
scalar simple_scenario_network.node[3].content_store 	hits[3] 	0
scalar simple_scenario_network.node[3].content_store 	misses[3] 	70873
scalar simple_scenario_network.node[4].core_layer 	interests[4] 	62180
scalar simple_scenario_network.node[4].core_layer 	repo_load[4] 	62180
scalar simple_scenario_network.node[4].core_layer 	data[4] 	0
scalar simple_scenario_network.node[4].content_store 	p_hit[4] 	0
scalar simple_scenario_network.node[4].content_store 	hits[4] 	0
scalar simple_scenario_network.node[4].content_store 	misses[4] 	62180
scalar simple_scenario_network.client[0] 	hdistance[0] 	2.3846518317019
scalar simple_scenario_network.client[0] 	downloads[0] 	179396
scalar simple_scenario_network.client[0] 	avg_time[0] 	0.001997927599
