version 2
run General-2056-20140421-20:48:45-16853
attr D costprob0.1
attr F nrr
attr R lru
attr a 0.8
attr configname General
attr csize 10
attr ctlg 10^3
attr datetime 20140421-20:48:45
attr experiment General
attr inifile omnetpp.ini
attr iterationvars "$net=simple_scenario, $rep=40, $priceratiovalue=3, $a=0.8, $ctlg=10^3, $F=nrr, $ttl=1000, $D=costprob0.1, $R=lru, $csize=10"
attr iterationvars2 "$net=simple_scenario, $rep=40, $priceratiovalue=3, $a=0.8, $ctlg=10^3, $F=nrr, $ttl=1000, $D=costprob0.1, $R=lru, $csize=10, $repetition=0"
attr measurement "$net=simple_scenario, $rep=40, $priceratiovalue=3, $a=0.8, $ctlg=10^3, $F=nrr, $ttl=1000, $D=costprob0.1, $R=lru, $csize=10"
attr net simple_scenario
attr network networks.${net=simple_scenario}_network
attr priceratiovalue 3
attr processid 16853
attr rep 40
attr repetition 0
attr replication #0
attr resultdir results
attr runnumber 2056
attr seedset 40
attr ttl 1000

scalar . 	a 	0.8
scalar . 	csize 	10
scalar . 	priceratiovalue 	3
scalar . 	rep 	40
scalar . 	ttl 	1000
scalar simple_scenario_network.content_distribution 	repo-0 	3
scalar simple_scenario_network.content_distribution 	repo-1 	4
scalar simple_scenario_network.content_distribution 	client-0 	0
scalar simple_scenario_network.content_distribution 	repo-0_card 	474
scalar simple_scenario_network.content_distribution 	repo-1_card 	526
scalar simple_scenario_network.statistics 	p_hit 	0.095873735902451
scalar simple_scenario_network.statistics 	interests 	96116
scalar simple_scenario_network.statistics 	data 	60089.2
scalar simple_scenario_network.statistics 	hdistance 	2.4121209766063
scalar simple_scenario_network.statistics 	avg_time 	0.001997895759
scalar simple_scenario_network.statistics 	downloads 	180134
scalar simple_scenario_network.statistics 	total_cost 	69940
scalar simple_scenario_network.node[0].core_layer 	interests[0] 	180134
scalar simple_scenario_network.node[0].core_layer 	data[0] 	166387
scalar simple_scenario_network.node[0].core_layer 	repo_int[0] 	134059
scalar simple_scenario_network.node[0].content_store 	p_hit[0] 	0.076315409639491
scalar simple_scenario_network.node[0].content_store 	hits[0] 	13747
scalar simple_scenario_network.node[0].content_store 	misses[0] 	166387
scalar simple_scenario_network.node[1].core_layer 	interests[1] 	79201
scalar simple_scenario_network.node[1].core_layer 	data[1] 	61207
scalar simple_scenario_network.node[1].content_store 	p_hit[1] 	0.22719410108458
scalar simple_scenario_network.node[1].content_store 	hits[1] 	17994
scalar simple_scenario_network.node[1].content_store 	misses[1] 	61207
scalar simple_scenario_network.node[2].core_layer 	interests[2] 	87186
scalar simple_scenario_network.node[2].core_layer 	data[2] 	72852
scalar simple_scenario_network.node[2].content_store 	p_hit[2] 	0.16440712958503
scalar simple_scenario_network.node[2].content_store 	hits[2] 	14334
scalar simple_scenario_network.node[2].content_store 	misses[2] 	72852
scalar simple_scenario_network.node[3].core_layer 	interests[3] 	61207
scalar simple_scenario_network.node[3].core_layer 	repo_load[3] 	61207
scalar simple_scenario_network.node[3].core_layer 	data[3] 	0
scalar simple_scenario_network.node[3].content_store 	p_hit[3] 	0
scalar simple_scenario_network.node[3].content_store 	hits[3] 	0
scalar simple_scenario_network.node[3].content_store 	misses[3] 	61207
scalar simple_scenario_network.node[4].core_layer 	interests[4] 	72852
scalar simple_scenario_network.node[4].core_layer 	repo_load[4] 	72852
scalar simple_scenario_network.node[4].core_layer 	data[4] 	0
scalar simple_scenario_network.node[4].content_store 	p_hit[4] 	0
scalar simple_scenario_network.node[4].content_store 	hits[4] 	0
scalar simple_scenario_network.node[4].content_store 	misses[4] 	72852
scalar simple_scenario_network.client[0] 	hdistance[0] 	2.4121209766063
scalar simple_scenario_network.client[0] 	downloads[0] 	180134
scalar simple_scenario_network.client[0] 	avg_time[0] 	0.001997895759
