version 2
run General-6597-20140423-21:18:41-1512
attr D costprob0.1
attr F nrr
attr R lru
attr a 0
attr configname General
attr csize 2
attr ctlg 10^3
attr datetime 20140423-21:18:41
attr experiment General
attr inifile omnetpp.ini
attr iterationvars "$net=simple_scenario, $rep=19, $priceratiovalue=4, $a=0, $ctlg=10^3, $F=nrr, $ttl=1000, $D=costprob0.1, $R=lru, $csize=2"
attr iterationvars2 "$net=simple_scenario, $rep=19, $priceratiovalue=4, $a=0, $ctlg=10^3, $F=nrr, $ttl=1000, $D=costprob0.1, $R=lru, $csize=2, $repetition=0"
attr measurement "$net=simple_scenario, $rep=19, $priceratiovalue=4, $a=0, $ctlg=10^3, $F=nrr, $ttl=1000, $D=costprob0.1, $R=lru, $csize=2"
attr net simple_scenario
attr network networks.${net=simple_scenario}_network
attr priceratiovalue 4
attr processid 1512
attr rep 19
attr repetition 0
attr replication #0
attr resultdir results
attr runnumber 6597
attr seedset 19
attr ttl 1000

scalar . 	a 	0
scalar . 	csize 	2
scalar . 	priceratiovalue 	4
scalar . 	rep 	19
scalar . 	ttl 	1000
scalar simple_scenario_network.content_distribution 	repo-0 	3
scalar simple_scenario_network.content_distribution 	repo-1 	4
scalar simple_scenario_network.content_distribution 	client-0 	0
scalar simple_scenario_network.content_distribution 	repo-0_card 	476
scalar simple_scenario_network.content_distribution 	repo-1_card 	524
scalar simple_scenario_network.statistics 	p_hit 	0.0019442268613635
scalar simple_scenario_network.statistics 	interests 	106983.4
scalar simple_scenario_network.statistics 	data 	71230
scalar simple_scenario_network.statistics 	hdistance 	2.9864404504187
scalar simple_scenario_network.statistics 	avg_time 	0.001999756195
scalar simple_scenario_network.statistics 	downloads 	178767
scalar simple_scenario_network.statistics 	total_cost 	91395
scalar simple_scenario_network.node[0].core_layer 	interests[0] 	178767
scalar simple_scenario_network.node[0].core_layer 	data[0] 	178423
scalar simple_scenario_network.node[0].core_layer 	repo_int[0] 	177727
scalar simple_scenario_network.node[0].content_store 	p_hit[0] 	0.0019242925148377
scalar simple_scenario_network.node[0].content_store 	hits[0] 	344
scalar simple_scenario_network.node[0].content_store 	misses[0] 	178423
scalar simple_scenario_network.node[1].core_layer 	interests[1] 	85007
scalar simple_scenario_network.node[1].core_layer 	data[1] 	84643
scalar simple_scenario_network.node[1].content_store 	p_hit[1] 	0.0042820003058572
scalar simple_scenario_network.node[1].content_store 	hits[1] 	364
scalar simple_scenario_network.node[1].content_store 	misses[1] 	84643
scalar simple_scenario_network.node[2].core_layer 	interests[2] 	93416
scalar simple_scenario_network.node[2].core_layer 	data[2] 	93084
scalar simple_scenario_network.node[2].content_store 	p_hit[2] 	0.0035539950329708
scalar simple_scenario_network.node[2].content_store 	hits[2] 	332
scalar simple_scenario_network.node[2].content_store 	misses[2] 	93084
scalar simple_scenario_network.node[3].core_layer 	interests[3] 	84643
scalar simple_scenario_network.node[3].core_layer 	repo_load[3] 	84643
scalar simple_scenario_network.node[3].core_layer 	data[3] 	0
scalar simple_scenario_network.node[3].content_store 	p_hit[3] 	0
scalar simple_scenario_network.node[3].content_store 	hits[3] 	0
scalar simple_scenario_network.node[3].content_store 	misses[3] 	84643
scalar simple_scenario_network.node[4].core_layer 	interests[4] 	93084
scalar simple_scenario_network.node[4].core_layer 	repo_load[4] 	93084
scalar simple_scenario_network.node[4].core_layer 	data[4] 	0
scalar simple_scenario_network.node[4].content_store 	p_hit[4] 	0
scalar simple_scenario_network.node[4].content_store 	hits[4] 	0
scalar simple_scenario_network.node[4].content_store 	misses[4] 	93084
scalar simple_scenario_network.client[0] 	hdistance[0] 	2.9864404504187
scalar simple_scenario_network.client[0] 	downloads[0] 	178767
scalar simple_scenario_network.client[0] 	avg_time[0] 	0.001999756195
