version 2
run General-21-20140626-16:55:16-7491
attr D lce
attr F spr
attr R lru
attr a 1
attr configname General
attr csize 1e3
attr ctlg 1e5
attr datetime 20140626-16:55:16
attr experiment General
attr inifile omnetpp.ini
attr iterationvars "$net=abilene_cost, $rep=9, $priceratiovalue=10, $weights=0.333_0.333_0.334, $lambda=100, $a=1, $ctlg=1e5, $F=spr, $ttl=1000, $D=lce, $xi=1, $R=lru, $csize=1e3, $pricebits=0, $mytime=1800"
attr iterationvars2 "$net=abilene_cost, $rep=9, $priceratiovalue=10, $weights=0.333_0.333_0.334, $lambda=100, $a=1, $ctlg=1e5, $F=spr, $ttl=1000, $D=lce, $xi=1, $R=lru, $csize=1e3, $pricebits=0, $mytime=1800, $repetition=0"
attr lambda 100
attr measurement "$net=abilene_cost, $rep=9, $priceratiovalue=10, $weights=0.333_0.333_0.334, $lambda=100, $a=1, $ctlg=1e5, $F=spr, $ttl=1000, $D=lce, $xi=1, $R=lru, $csize=1e3, $pricebits=0, $mytime=1800"
attr mytime 1800
attr net abilene_cost
attr network "networks.${net=geant_cost, abilene_cost}_network"
attr pricebits 0
attr priceratiovalue 10
attr processid 7491
attr rep 9
attr repetition 0
attr replication #0
attr resultdir results
attr runnumber 21
attr seedset 9
attr ttl 1000
attr weights 0.333_0.333_0.334
attr xi 1

scalar . 	a 	1
scalar . 	csize 	1e3
scalar . 	ctlg 	1e5
scalar . 	lambda 	100
scalar . 	mytime 	1800
scalar . 	pricebits 	0
scalar . 	priceratiovalue 	10
scalar . 	rep 	9
scalar . 	ttl 	1000
scalar . 	xi 	1
scalar abilene_cost_network.content_distribution 	repo-0 	11
scalar abilene_cost_network.content_distribution 	repo-1 	12
scalar abilene_cost_network.content_distribution 	repo-2 	13
scalar abilene_cost_network.content_distribution 	client-0 	5
scalar abilene_cost_network.content_distribution 	client-1 	0
scalar abilene_cost_network.content_distribution 	client-2 	9
scalar abilene_cost_network.content_distribution 	repo-0_card 	33407
scalar abilene_cost_network.content_distribution 	repo-1_card 	33169
scalar abilene_cost_network.content_distribution 	repo-2_card 	33424
scalar abilene_cost_network.statistics 	repo_popularity[0] 	0.34242359259278
scalar abilene_cost_network.statistics 	repo_popularity[1] 	0.29137742219581
scalar abilene_cost_network.statistics 	repo_popularity[2] 	0.36619898521141
scalar abilene_cost_network.statistics 	stabilization_time 	63.9
scalar abilene_cost_network.node[1].face$o[4].channel 	price[1] 	0
scalar abilene_cost_network.node[1].face$o[4].channel 	represented_price[1] 	0
scalar abilene_cost_network.node[7].face$o[4].channel 	price[7] 	0
scalar abilene_cost_network.node[7].face$o[4].channel 	represented_price[7] 	0
scalar abilene_cost_network.node[10].face$o[4].channel 	price[10] 	0
scalar abilene_cost_network.node[10].face$o[4].channel 	represented_price[10] 	0
scalar abilene_cost_network.node[11].face$o[1].channel 	price[11] 	0
scalar abilene_cost_network.node[11].face$o[1].channel 	represented_price[11] 	0
scalar abilene_cost_network.node[12].face$o[1].channel 	price[12] 	1
scalar abilene_cost_network.node[12].face$o[1].channel 	represented_price[12] 	1
scalar abilene_cost_network.node[13].face$o[1].channel 	price[13] 	10
scalar abilene_cost_network.node[13].face$o[1].channel 	represented_price[13] 	10
scalar abilene_cost_network.statistics 	p_hit 	0.10629785971282
scalar abilene_cost_network.statistics 	interests 	129498.64285714
scalar abilene_cost_network.statistics 	data 	90893.357142857
scalar abilene_cost_network.statistics 	hdistance 	3.0003382960876
scalar abilene_cost_network.statistics 	avg_time 	0.011121720606
scalar abilene_cost_network.statistics 	downloads 	539933
scalar abilene_cost_network.statistics 	total_cost 	1349875
scalar abilene_cost_network.statistics 	total_replicas 	100000
scalar abilene_cost_network.statistics 	inner_hit 	0.35693502712374
scalar abilene_cost_network.statistics 	interests_sent 	540487
scalar abilene_cost_network.node[0].core_layer 	interests[0] 	180177
scalar abilene_cost_network.node[0].core_layer 	data[0] 	129668
scalar abilene_cost_network.node[0].core_layer 	repo_int[0] 	347212
scalar abilene_cost_network.node[0].content_store 	p_hit[0] 	0.27929757960228
scalar abilene_cost_network.node[0].content_store 	hits[0] 	50323
scalar abilene_cost_network.node[0].content_store 	misses[0] 	129854
scalar abilene_cost_network.node[0].content_store 	decision_yes[0] 	129668
scalar abilene_cost_network.node[0].content_store 	decision_no[0] 	0
scalar abilene_cost_network.node[0].content_store 	decision_ratio[0] 	1
scalar abilene_cost_network.node[1].core_layer 	interests[1] 	216823
scalar abilene_cost_network.node[1].core_layer 	data[1] 	206924
scalar abilene_cost_network.node[1].content_store 	p_hit[1] 	0.045663974762825
scalar abilene_cost_network.node[1].content_store 	hits[1] 	9901
scalar abilene_cost_network.node[1].content_store 	misses[1] 	206922
scalar abilene_cost_network.node[1].content_store 	decision_yes[1] 	206924
scalar abilene_cost_network.node[1].content_store 	decision_no[1] 	0
scalar abilene_cost_network.node[1].content_store 	decision_ratio[1] 	1
scalar abilene_cost_network.node[2].core_layer 	interests[2] 	126086
scalar abilene_cost_network.node[2].core_layer 	data[2] 	125773
scalar abilene_cost_network.node[2].content_store 	p_hit[2] 	0.0024982948146503
scalar abilene_cost_network.node[2].content_store 	hits[2] 	315
scalar abilene_cost_network.node[2].content_store 	misses[2] 	125771
scalar abilene_cost_network.node[2].content_store 	decision_yes[2] 	125773
scalar abilene_cost_network.node[2].content_store 	decision_no[2] 	0
scalar abilene_cost_network.node[2].content_store 	decision_ratio[2] 	1
scalar abilene_cost_network.node[3].core_layer 	interests[3] 	125771
scalar abilene_cost_network.node[3].core_layer 	data[3] 	125768
scalar abilene_cost_network.node[3].content_store 	p_hit[3] 	3.9754792440229e-05
scalar abilene_cost_network.node[3].content_store 	hits[3] 	5
scalar abilene_cost_network.node[3].content_store 	misses[3] 	125766
scalar abilene_cost_network.node[3].content_store 	decision_yes[3] 	125768
scalar abilene_cost_network.node[3].content_store 	decision_no[3] 	0
scalar abilene_cost_network.node[3].content_store 	decision_ratio[3] 	1
scalar abilene_cost_network.node[4].core_layer 	interests[4] 	87599
scalar abilene_cost_network.node[4].core_layer 	data[4] 	84178
scalar abilene_cost_network.node[4].content_store 	p_hit[4] 	0.039075788536399
scalar abilene_cost_network.node[4].content_store 	hits[4] 	3423
scalar abilene_cost_network.node[4].content_store 	misses[4] 	84176
scalar abilene_cost_network.node[4].content_store 	decision_yes[4] 	84178
scalar abilene_cost_network.node[4].content_store 	decision_no[4] 	0
scalar abilene_cost_network.node[4].content_store 	decision_ratio[4] 	1
scalar abilene_cost_network.node[5].core_layer 	interests[5] 	180010
scalar abilene_cost_network.node[5].core_layer 	data[5] 	129383
scalar abilene_cost_network.node[5].content_store 	p_hit[5] 	0.28002333203711
scalar abilene_cost_network.node[5].content_store 	hits[5] 	50407
scalar abilene_cost_network.node[5].content_store 	misses[5] 	129603
scalar abilene_cost_network.node[5].content_store 	decision_yes[5] 	129383
scalar abilene_cost_network.node[5].content_store 	decision_no[5] 	0
scalar abilene_cost_network.node[5].content_store 	decision_ratio[5] 	1
scalar abilene_cost_network.node[6].core_layer 	interests[6] 	41781
scalar abilene_cost_network.node[6].core_layer 	data[6] 	36697
scalar abilene_cost_network.node[6].content_store 	p_hit[6] 	0.12168210430578
scalar abilene_cost_network.node[6].content_store 	hits[6] 	5084
scalar abilene_cost_network.node[6].content_store 	misses[6] 	36697
scalar abilene_cost_network.node[6].content_store 	decision_yes[6] 	36697
scalar abilene_cost_network.node[6].content_store 	decision_no[6] 	0
scalar abilene_cost_network.node[6].content_store 	decision_ratio[6] 	1
scalar abilene_cost_network.node[7].core_layer 	interests[7] 	114836
scalar abilene_cost_network.node[7].core_layer 	data[7] 	107595
scalar abilene_cost_network.node[7].content_store 	p_hit[7] 	0.063055139503292
scalar abilene_cost_network.node[7].content_store 	hits[7] 	7241
scalar abilene_cost_network.node[7].content_store 	misses[7] 	107595
scalar abilene_cost_network.node[7].content_store 	decision_yes[7] 	107595
scalar abilene_cost_network.node[7].content_store 	decision_no[7] 	0
scalar abilene_cost_network.node[7].content_store 	decision_ratio[7] 	1
scalar abilene_cost_network.node[8].core_layer 	interests[8] 	41561
scalar abilene_cost_network.node[8].core_layer 	data[8] 	36549
scalar abilene_cost_network.node[8].content_store 	p_hit[8] 	0.12059382594259
scalar abilene_cost_network.node[8].content_store 	hits[8] 	5012
scalar abilene_cost_network.node[8].content_store 	misses[8] 	36549
scalar abilene_cost_network.node[8].content_store 	decision_yes[8] 	36549
scalar abilene_cost_network.node[8].content_store 	decision_no[8] 	0
scalar abilene_cost_network.node[8].content_store 	decision_ratio[8] 	1
scalar abilene_cost_network.node[9].core_layer 	interests[9] 	180300
scalar abilene_cost_network.node[9].core_layer 	data[9] 	129270
scalar abilene_cost_network.node[9].content_store 	p_hit[9] 	0.28220743205768
scalar abilene_cost_network.node[9].content_store 	hits[9] 	50882
scalar abilene_cost_network.node[9].content_store 	misses[9] 	129418
scalar abilene_cost_network.node[9].content_store 	decision_yes[9] 	129270
scalar abilene_cost_network.node[9].content_store 	decision_no[9] 	0
scalar abilene_cost_network.node[9].content_store 	decision_ratio[9] 	1
scalar abilene_cost_network.node[10].core_layer 	interests[10] 	170825
scalar abilene_cost_network.node[10].core_layer 	data[10] 	160702
scalar abilene_cost_network.node[10].content_store 	p_hit[10] 	0.059259476072004
scalar abilene_cost_network.node[10].content_store 	hits[10] 	10123
scalar abilene_cost_network.node[10].content_store 	misses[10] 	160702
scalar abilene_cost_network.node[10].content_store 	decision_yes[10] 	160702
scalar abilene_cost_network.node[10].content_store 	decision_no[10] 	0
scalar abilene_cost_network.node[10].content_store 	decision_ratio[10] 	1
scalar abilene_cost_network.node[11].core_layer 	interests[11] 	115389
scalar abilene_cost_network.node[11].core_layer 	repo_load[11] 	115389
scalar abilene_cost_network.node[11].core_layer 	data[11] 	0
scalar abilene_cost_network.node[11].content_store 	p_hit[11] 	0
scalar abilene_cost_network.node[11].content_store 	hits[11] 	0
scalar abilene_cost_network.node[11].content_store 	misses[11] 	115389
scalar abilene_cost_network.node[11].content_store 	decision_yes[11] 	0
scalar abilene_cost_network.node[11].content_store 	decision_no[11] 	115389
scalar abilene_cost_network.node[11].content_store 	decision_ratio[11] 	0
scalar abilene_cost_network.node[12].core_layer 	interests[12] 	107595
scalar abilene_cost_network.node[12].core_layer 	repo_load[12] 	107595
scalar abilene_cost_network.node[12].core_layer 	data[12] 	0
scalar abilene_cost_network.node[12].content_store 	p_hit[12] 	0
scalar abilene_cost_network.node[12].content_store 	hits[12] 	0
scalar abilene_cost_network.node[12].content_store 	misses[12] 	107595
scalar abilene_cost_network.node[12].content_store 	decision_yes[12] 	0
scalar abilene_cost_network.node[12].content_store 	decision_no[12] 	107595
scalar abilene_cost_network.node[12].content_store 	decision_ratio[12] 	0
scalar abilene_cost_network.node[13].core_layer 	interests[13] 	124228
scalar abilene_cost_network.node[13].core_layer 	repo_load[13] 	124228
scalar abilene_cost_network.node[13].core_layer 	data[13] 	0
scalar abilene_cost_network.node[13].content_store 	p_hit[13] 	0
scalar abilene_cost_network.node[13].content_store 	hits[13] 	0
scalar abilene_cost_network.node[13].content_store 	misses[13] 	124228
scalar abilene_cost_network.node[13].content_store 	decision_yes[13] 	0
scalar abilene_cost_network.node[13].content_store 	decision_no[13] 	124228
scalar abilene_cost_network.node[13].content_store 	decision_ratio[13] 	0
scalar abilene_cost_network.client[0] 	hdistance[0] 	2.7433982810251
scalar abilene_cost_network.client[0] 	downloads[0] 	179991
scalar abilene_cost_network.client[0] 	avg_time[0] 	0.010683207464
scalar abilene_cost_network.client[0] 	interests_sent[0] 	180177
scalar abilene_cost_network.client[5] 	hdistance[5] 	3.8070359864286
scalar abilene_cost_network.client[5] 	downloads[5] 	179790
scalar abilene_cost_network.client[5] 	avg_time[5] 	0.013596484466
scalar abilene_cost_network.client[5] 	interests_sent[5] 	180010
scalar abilene_cost_network.client[9] 	hdistance[9] 	2.4505806208091
scalar abilene_cost_network.client[9] 	downloads[9] 	180152
scalar abilene_cost_network.client[9] 	avg_time[9] 	0.009085469888
scalar abilene_cost_network.client[9] 	interests_sent[9] 	180300
