version 2
run General-5-20140512-16:04:39-29929
attr D lce
attr F spr
attr R lru
attr a 1
attr configname General
attr csize 1e3
attr ctlg 1e5
attr datetime 20140512-16:04:39
attr experiment General
attr inifile omnetpp.ini
attr iterationvars "$net=abilene_cost, $rep=1, $priceratiovalue=10, $weights=0.333_0.333_0.334, $a=1, $ctlg=1e5, $F=spr, $ttl=1000, $D=lce, $xi=1, $R=lru, $csize=1e3"
attr iterationvars2 "$net=abilene_cost, $rep=1, $priceratiovalue=10, $weights=0.333_0.333_0.334, $a=1, $ctlg=1e5, $F=spr, $ttl=1000, $D=lce, $xi=1, $R=lru, $csize=1e3, $repetition=0"
attr measurement "$net=abilene_cost, $rep=1, $priceratiovalue=10, $weights=0.333_0.333_0.334, $a=1, $ctlg=1e5, $F=spr, $ttl=1000, $D=lce, $xi=1, $R=lru, $csize=1e3"
attr net abilene_cost
attr network networks.${net=abilene_cost}_network
attr priceratiovalue 10
attr processid 29929
attr rep 1
attr repetition 0
attr replication #0
attr resultdir results
attr runnumber 5
attr seedset 1
attr ttl 1000
attr weights 0.333_0.333_0.334
attr xi 1

scalar . 	a 	1
scalar . 	csize 	1e3
scalar . 	ctlg 	1e5
scalar . 	priceratiovalue 	10
scalar . 	rep 	1
scalar . 	ttl 	1000
scalar . 	xi 	1
scalar abilene_cost_network.content_distribution 	repo-0 	11
scalar abilene_cost_network.content_distribution 	repo-1 	12
scalar abilene_cost_network.content_distribution 	repo-2 	13
scalar abilene_cost_network.content_distribution 	client-0 	3
scalar abilene_cost_network.content_distribution 	client-1 	7
scalar abilene_cost_network.content_distribution 	client-2 	10
scalar abilene_cost_network.content_distribution 	repo-0_card 	33396
scalar abilene_cost_network.content_distribution 	repo-1_card 	33039
scalar abilene_cost_network.content_distribution 	repo-2_card 	33565
scalar abilene_cost_network.statistics 	p_hit 	0.10881635493939
scalar abilene_cost_network.statistics 	interests 	131154.78571429
scalar abilene_cost_network.statistics 	data 	92595.642857143
scalar abilene_cost_network.statistics 	hdistance 	3.0311259131935
scalar abilene_cost_network.statistics 	avg_time 	0
scalar abilene_cost_network.statistics 	downloads 	539828
scalar abilene_cost_network.statistics 	total_cost 	1295467
scalar abilene_cost_network.statistics 	total_replicas 	100000
scalar abilene_cost_network.statistics 	interests_sent 	539828
scalar abilene_cost_network.node[0].core_layer 	interests[0] 	124614
scalar abilene_cost_network.node[0].core_layer 	data[0] 	114197
scalar abilene_cost_network.node[0].core_layer 	repo_int[0] 	340023
scalar abilene_cost_network.node[0].content_store 	p_hit[0] 	0.083594138700307
scalar abilene_cost_network.node[0].content_store 	hits[0] 	10417
scalar abilene_cost_network.node[0].content_store 	misses[0] 	114197
scalar abilene_cost_network.node[0].content_store 	decision_yes[0] 	114197
scalar abilene_cost_network.node[0].content_store 	decision_no[0] 	0
scalar abilene_cost_network.node[0].content_store 	decision_ratio[0] 	1
scalar abilene_cost_network.node[1].core_layer 	interests[1] 	84797
scalar abilene_cost_network.node[1].core_layer 	data[1] 	82051
scalar abilene_cost_network.node[1].content_store 	p_hit[1] 	0.03238322110452
scalar abilene_cost_network.node[1].content_store 	hits[1] 	2746
scalar abilene_cost_network.node[1].content_store 	misses[1] 	82051
scalar abilene_cost_network.node[1].content_store 	decision_yes[1] 	82051
scalar abilene_cost_network.node[1].content_store 	decision_no[1] 	0
scalar abilene_cost_network.node[1].content_store 	decision_ratio[1] 	1
scalar abilene_cost_network.node[2].core_layer 	interests[2] 	84969
scalar abilene_cost_network.node[2].core_layer 	data[2] 	82078
scalar abilene_cost_network.node[2].content_store 	p_hit[2] 	0.034024173522108
scalar abilene_cost_network.node[2].content_store 	hits[2] 	2891
scalar abilene_cost_network.node[2].content_store 	misses[2] 	82078
scalar abilene_cost_network.node[2].content_store 	decision_yes[2] 	82078
scalar abilene_cost_network.node[2].content_store 	decision_no[2] 	0
scalar abilene_cost_network.node[2].content_store 	decision_ratio[2] 	1
scalar abilene_cost_network.node[3].core_layer 	interests[3] 	220679
scalar abilene_cost_network.node[3].core_layer 	data[3] 	169668
scalar abilene_cost_network.node[3].content_store 	p_hit[3] 	0.23115475419048
scalar abilene_cost_network.node[3].content_store 	hits[3] 	51011
scalar abilene_cost_network.node[3].content_store 	misses[3] 	169668
scalar abilene_cost_network.node[3].content_store 	decision_yes[3] 	169668
scalar abilene_cost_network.node[3].content_store 	decision_no[3] 	0
scalar abilene_cost_network.node[3].content_store 	decision_ratio[3] 	1
scalar abilene_cost_network.node[4].core_layer 	interests[4] 	79866
scalar abilene_cost_network.node[4].core_layer 	data[4] 	74388
scalar abilene_cost_network.node[4].content_store 	p_hit[4] 	0.068589888062505
scalar abilene_cost_network.node[4].content_store 	hits[4] 	5478
scalar abilene_cost_network.node[4].content_store 	misses[4] 	74388
scalar abilene_cost_network.node[4].content_store 	decision_yes[4] 	74388
scalar abilene_cost_network.node[4].content_store 	decision_no[4] 	0
scalar abilene_cost_network.node[4].content_store 	decision_ratio[4] 	1
scalar abilene_cost_network.node[5].core_layer 	interests[5] 	111245
scalar abilene_cost_network.node[5].core_layer 	data[5] 	106977
scalar abilene_cost_network.node[5].content_store 	p_hit[5] 	0.038365769248056
scalar abilene_cost_network.node[5].content_store 	hits[5] 	4268
scalar abilene_cost_network.node[5].content_store 	misses[5] 	106977
scalar abilene_cost_network.node[5].content_store 	decision_yes[5] 	106977
scalar abilene_cost_network.node[5].content_store 	decision_no[5] 	0
scalar abilene_cost_network.node[5].content_store 	decision_ratio[5] 	1
scalar abilene_cost_network.node[6].core_layer 	interests[6] 	43447
scalar abilene_cost_network.node[6].core_layer 	data[6] 	36857
scalar abilene_cost_network.node[6].content_store 	p_hit[6] 	0.15167905724216
scalar abilene_cost_network.node[6].content_store 	hits[6] 	6590
scalar abilene_cost_network.node[6].content_store 	misses[6] 	36857
scalar abilene_cost_network.node[6].content_store 	decision_yes[6] 	36857
scalar abilene_cost_network.node[6].content_store 	decision_no[6] 	0
scalar abilene_cost_network.node[6].content_store 	decision_ratio[6] 	1
scalar abilene_cost_network.node[7].core_layer 	interests[7] 	225277
scalar abilene_cost_network.node[7].core_layer 	data[7] 	171823
scalar abilene_cost_network.node[7].content_store 	p_hit[7] 	0.23728121379457
scalar abilene_cost_network.node[7].content_store 	hits[7] 	53454
scalar abilene_cost_network.node[7].content_store 	misses[7] 	171823
scalar abilene_cost_network.node[7].content_store 	decision_yes[7] 	171823
scalar abilene_cost_network.node[7].content_store 	decision_no[7] 	0
scalar abilene_cost_network.node[7].content_store 	decision_ratio[7] 	1
scalar abilene_cost_network.node[8].core_layer 	interests[8] 	128376
scalar abilene_cost_network.node[8].core_layer 	data[8] 	124526
scalar abilene_cost_network.node[8].content_store 	p_hit[8] 	0.029990029288964
scalar abilene_cost_network.node[8].content_store 	hits[8] 	3850
scalar abilene_cost_network.node[8].content_store 	misses[8] 	124526
scalar abilene_cost_network.node[8].content_store 	decision_yes[8] 	124526
scalar abilene_cost_network.node[8].content_store 	decision_no[8] 	0
scalar abilene_cost_network.node[8].content_store 	decision_ratio[8] 	1
scalar abilene_cost_network.node[9].core_layer 	interests[9] 	169918
scalar abilene_cost_network.node[9].core_layer 	data[9] 	162213
scalar abilene_cost_network.node[9].content_store 	p_hit[9] 	0.04534540189974
scalar abilene_cost_network.node[9].content_store 	hits[9] 	7705
scalar abilene_cost_network.node[9].content_store 	misses[9] 	162213
scalar abilene_cost_network.node[9].content_store 	decision_yes[9] 	162213
scalar abilene_cost_network.node[9].content_store 	decision_no[9] 	0
scalar abilene_cost_network.node[9].content_store 	decision_ratio[9] 	1
scalar abilene_cost_network.node[10].core_layer 	interests[10] 	222956
scalar abilene_cost_network.node[10].core_layer 	data[10] 	171561
scalar abilene_cost_network.node[10].content_store 	p_hit[10] 	0.23051633506163
scalar abilene_cost_network.node[10].content_store 	hits[10] 	51395
scalar abilene_cost_network.node[10].content_store 	misses[10] 	171561
scalar abilene_cost_network.node[10].content_store 	decision_yes[10] 	171561
scalar abilene_cost_network.node[10].content_store 	decision_no[10] 	0
scalar abilene_cost_network.node[10].content_store 	decision_ratio[10] 	1
scalar abilene_cost_network.node[11].core_layer 	interests[11] 	114197
scalar abilene_cost_network.node[11].core_layer 	repo_load[11] 	114197
scalar abilene_cost_network.node[11].core_layer 	data[11] 	0
scalar abilene_cost_network.node[11].content_store 	p_hit[11] 	0
scalar abilene_cost_network.node[11].content_store 	hits[11] 	0
scalar abilene_cost_network.node[11].content_store 	misses[11] 	114197
scalar abilene_cost_network.node[11].content_store 	decision_yes[11] 	0
scalar abilene_cost_network.node[11].content_store 	decision_no[11] 	114197
scalar abilene_cost_network.node[11].content_store 	decision_ratio[11] 	0
scalar abilene_cost_network.node[12].core_layer 	interests[12] 	106977
scalar abilene_cost_network.node[12].core_layer 	repo_load[12] 	106977
scalar abilene_cost_network.node[12].core_layer 	data[12] 	0
scalar abilene_cost_network.node[12].content_store 	p_hit[12] 	0
scalar abilene_cost_network.node[12].content_store 	hits[12] 	0
scalar abilene_cost_network.node[12].content_store 	misses[12] 	106977
scalar abilene_cost_network.node[12].content_store 	decision_yes[12] 	0
scalar abilene_cost_network.node[12].content_store 	decision_no[12] 	106977
scalar abilene_cost_network.node[12].content_store 	decision_ratio[12] 	0
scalar abilene_cost_network.node[13].core_layer 	interests[13] 	118849
scalar abilene_cost_network.node[13].core_layer 	repo_load[13] 	118849
scalar abilene_cost_network.node[13].core_layer 	data[13] 	0
scalar abilene_cost_network.node[13].content_store 	p_hit[13] 	0
scalar abilene_cost_network.node[13].content_store 	hits[13] 	0
scalar abilene_cost_network.node[13].content_store 	misses[13] 	118849
scalar abilene_cost_network.node[13].content_store 	decision_yes[13] 	0
scalar abilene_cost_network.node[13].content_store 	decision_no[13] 	118849
scalar abilene_cost_network.node[13].content_store 	decision_ratio[13] 	0
scalar abilene_cost_network.client[3] 	hdistance[3] 	3.0988049532856
scalar abilene_cost_network.client[3] 	downloads[3] 	180244
scalar abilene_cost_network.client[3] 	avg_time[3] 	0
scalar abilene_cost_network.client[3] 	interests_sent[3] 	180244
scalar abilene_cost_network.client[7] 	hdistance[7] 	3.1092104093515
scalar abilene_cost_network.client[7] 	downloads[7] 	179992
scalar abilene_cost_network.client[7] 	avg_time[7] 	0
scalar abilene_cost_network.client[7] 	interests_sent[7] 	179992
scalar abilene_cost_network.client[10] 	hdistance[10] 	2.8853623769433
scalar abilene_cost_network.client[10] 	downloads[10] 	179592
scalar abilene_cost_network.client[10] 	avg_time[10] 	0
scalar abilene_cost_network.client[10] 	interests_sent[10] 	179592
