version 2
run General-0-20150602-14:49:40-8277
attr D lce
attr F spr
attr R lru
attr a 0.5
attr configname General
attr datetime 20150602-14:49:40
attr experiment General
attr inifile omnetpp.ini.nocost
attr iterationvars "$net=abilene, $rep=0, $a=0.5, $F=spr, $ttl=1000, $D=lce, $R=lru"
attr iterationvars2 "$net=abilene, $rep=0, $a=0.5, $F=spr, $ttl=1000, $D=lce, $R=lru, $repetition=0"
attr measurement "$net=abilene, $rep=0, $a=0.5, $F=spr, $ttl=1000, $D=lce, $R=lru"
attr net abilene
attr network networks.${net=abilene}_network
attr processid 8277
attr rep 0
attr repetition 0
attr replication #0
attr resultdir results
attr runnumber 0
attr seedset 0
attr ttl 1000

scalar . 	a 	0.5
scalar . 	rep 	0
scalar . 	ttl 	1000
scalar abilene_network.content_distribution 	repo-0 	5
scalar abilene_network.content_distribution 	client-0 	8
scalar abilene_network.content_distribution 	client-1 	9
scalar abilene_network.content_distribution 	client-2 	5
scalar abilene_network.content_distribution 	client-3 	0
scalar abilene_network.content_distribution 	client-4 	1
scalar abilene_network.content_distribution 	client-5 	7
scalar abilene_network.content_distribution 	client-6 	6
scalar abilene_network.content_distribution 	client-7 	2
scalar abilene_network.content_distribution 	client-8 	4
scalar abilene_network.content_distribution 	client-9 	10
scalar abilene_network.content_distribution 	client-10 	3
scalar abilene_network.content_distribution 	repo-0_card 	10000
scalar abilene_network.content_distribution 	repo-0_price 	0
scalar abilene_network.statistics 	stabilization_time 	167.4
scalar abilene_network.statistics 	p_hit 	0.011875843454791
scalar abilene_network.statistics 	interests 	2357.7272727273
scalar abilene_network.statistics 	data 	1711.5454545455
scalar abilene_network.statistics 	hdistance 	3.5969094520722
scalar abilene_network.statistics 	avg_time 	0.014903596786
scalar abilene_network.statistics 	downloads 	7108
scalar abilene_network.statistics 	total_cost 	0
scalar abilene_network.statistics 	total_replicas 	10000
scalar abilene_network.statistics 	inner_hit 	0.043331457512662
scalar abilene_network.statistics 	interests_sent 	7108
scalar abilene_network.node[0].core_layer 	interests[0] 	635
scalar abilene_network.node[0].core_layer 	data[0] 	618
scalar abilene_network.node[0].core_layer 	repo_int[0] 	6800
scalar abilene_network.node[0].content_store 	p_hit[0] 	0.026771653543307
scalar abilene_network.node[0].content_store 	hits[0] 	17
scalar abilene_network.node[0].content_store 	misses[0] 	618
scalar abilene_network.node[0].content_store 	decision_yes[0] 	618
scalar abilene_network.node[0].content_store 	decision_no[0] 	0
scalar abilene_network.node[0].content_store 	decision_ratio[0] 	1
scalar abilene_network.node[1].core_layer 	interests[1] 	1924
scalar abilene_network.node[1].core_layer 	data[1] 	1892
scalar abilene_network.node[1].content_store 	p_hit[1] 	0.016632016632017
scalar abilene_network.node[1].content_store 	hits[1] 	32
scalar abilene_network.node[1].content_store 	misses[1] 	1892
scalar abilene_network.node[1].content_store 	decision_yes[1] 	1892
scalar abilene_network.node[1].content_store 	decision_no[1] 	0
scalar abilene_network.node[1].content_store 	decision_ratio[1] 	1
scalar abilene_network.node[2].core_layer 	interests[2] 	2530
scalar abilene_network.node[2].core_layer 	data[2] 	2501
scalar abilene_network.node[2].content_store 	p_hit[2] 	0.011462450592885
scalar abilene_network.node[2].content_store 	hits[2] 	29
scalar abilene_network.node[2].content_store 	misses[2] 	2501
scalar abilene_network.node[2].content_store 	decision_yes[2] 	2501
scalar abilene_network.node[2].content_store 	decision_no[2] 	0
scalar abilene_network.node[2].content_store 	decision_ratio[2] 	1
scalar abilene_network.node[3].core_layer 	interests[3] 	3155
scalar abilene_network.node[3].core_layer 	data[3] 	3124
scalar abilene_network.node[3].content_store 	p_hit[3] 	0.0098256735340729
scalar abilene_network.node[3].content_store 	hits[3] 	31
scalar abilene_network.node[3].content_store 	misses[3] 	3124
scalar abilene_network.node[3].content_store 	decision_yes[3] 	3124
scalar abilene_network.node[3].content_store 	decision_no[3] 	0
scalar abilene_network.node[3].content_store 	decision_ratio[3] 	1
scalar abilene_network.node[4].core_layer 	interests[4] 	3768
scalar abilene_network.node[4].core_layer 	data[4] 	3748
scalar abilene_network.node[4].content_store 	p_hit[4] 	0.005307855626327
scalar abilene_network.node[4].content_store 	hits[4] 	20
scalar abilene_network.node[4].content_store 	misses[4] 	3748
scalar abilene_network.node[4].content_store 	decision_yes[4] 	3748
scalar abilene_network.node[4].content_store 	decision_no[4] 	0
scalar abilene_network.node[4].content_store 	decision_ratio[4] 	1
scalar abilene_network.node[5].core_layer 	interests[5] 	6886
scalar abilene_network.node[5].core_layer 	repo_load[5] 	6800
scalar abilene_network.node[5].core_layer 	data[5] 	0
scalar abilene_network.node[5].content_store 	p_hit[5] 	0.012489108335754
scalar abilene_network.node[5].content_store 	hits[5] 	86
scalar abilene_network.node[5].content_store 	misses[5] 	6800
scalar abilene_network.node[5].content_store 	decision_yes[5] 	6800
scalar abilene_network.node[5].content_store 	decision_no[5] 	0
scalar abilene_network.node[5].content_store 	decision_ratio[5] 	1
scalar abilene_network.node[6].core_layer 	interests[6] 	2533
scalar abilene_network.node[6].core_layer 	data[6] 	2504
scalar abilene_network.node[6].content_store 	p_hit[6] 	0.011448874851954
scalar abilene_network.node[6].content_store 	hits[6] 	29
scalar abilene_network.node[6].content_store 	misses[6] 	2504
scalar abilene_network.node[6].content_store 	decision_yes[6] 	2504
scalar abilene_network.node[6].content_store 	decision_no[6] 	0
scalar abilene_network.node[6].content_store 	decision_ratio[6] 	1
scalar abilene_network.node[7].core_layer 	interests[7] 	1889
scalar abilene_network.node[7].core_layer 	data[7] 	1866
scalar abilene_network.node[7].content_store 	p_hit[7] 	0.01217575436739
scalar abilene_network.node[7].content_store 	hits[7] 	23
scalar abilene_network.node[7].content_store 	misses[7] 	1866
scalar abilene_network.node[7].content_store 	decision_yes[7] 	1866
scalar abilene_network.node[7].content_store 	decision_no[7] 	0
scalar abilene_network.node[7].content_store 	decision_ratio[7] 	1
scalar abilene_network.node[8].core_layer 	interests[8] 	1263
scalar abilene_network.node[8].core_layer 	data[8] 	1251
scalar abilene_network.node[8].content_store 	p_hit[8] 	0.0095011876484561
scalar abilene_network.node[8].content_store 	hits[8] 	12
scalar abilene_network.node[8].content_store 	misses[8] 	1251
scalar abilene_network.node[8].content_store 	decision_yes[8] 	1251
scalar abilene_network.node[8].content_store 	decision_no[8] 	0
scalar abilene_network.node[8].content_store 	decision_ratio[8] 	1
scalar abilene_network.node[9].core_layer 	interests[9] 	677
scalar abilene_network.node[9].core_layer 	data[9] 	663
scalar abilene_network.node[9].content_store 	p_hit[9] 	0.020679468242245
scalar abilene_network.node[9].content_store 	hits[9] 	14
scalar abilene_network.node[9].content_store 	misses[9] 	663
scalar abilene_network.node[9].content_store 	decision_yes[9] 	663
scalar abilene_network.node[9].content_store 	decision_no[9] 	0
scalar abilene_network.node[9].content_store 	decision_ratio[9] 	1
scalar abilene_network.node[10].core_layer 	interests[10] 	675
scalar abilene_network.node[10].core_layer 	data[10] 	660
scalar abilene_network.node[10].content_store 	p_hit[10] 	0.022222222222222
scalar abilene_network.node[10].content_store 	hits[10] 	15
scalar abilene_network.node[10].content_store 	misses[10] 	660
scalar abilene_network.node[10].content_store 	decision_yes[10] 	660
scalar abilene_network.node[10].content_store 	decision_no[10] 	0
scalar abilene_network.node[10].content_store 	decision_ratio[10] 	1
scalar abilene_network.client[0] 	hdistance[0] 	5.7606299212598
scalar abilene_network.client[0] 	downloads[0] 	635
scalar abilene_network.client[0] 	avg_time[0] 	0.030072472285
scalar abilene_network.client[0] 	interests_sent[0] 	635
scalar abilene_network.client[1] 	hdistance[1] 	4.8235294117647
scalar abilene_network.client[1] 	downloads[1] 	646
scalar abilene_network.client[1] 	avg_time[1] 	0.019561857432
scalar abilene_network.client[1] 	interests_sent[1] 	646
scalar abilene_network.client[2] 	hdistance[2] 	3.8291536050157
scalar abilene_network.client[2] 	downloads[2] 	638
scalar abilene_network.client[2] 	avg_time[2] 	0.013704984163
scalar abilene_network.client[2] 	interests_sent[2] 	638
scalar abilene_network.client[3] 	hdistance[3] 	2.9006116207951
scalar abilene_network.client[3] 	downloads[3] 	654
scalar abilene_network.client[3] 	avg_time[3] 	0.009117920323
scalar abilene_network.client[3] 	interests_sent[3] 	654
scalar abilene_network.client[4] 	hdistance[4] 	1.9503105590062
scalar abilene_network.client[4] 	downloads[4] 	644
scalar abilene_network.client[4] 	avg_time[4] 	0.007485776245
scalar abilene_network.client[4] 	interests_sent[4] 	644
scalar abilene_network.client[5] 	hdistance[5] 	0.96529968454259
scalar abilene_network.client[5] 	downloads[5] 	634
scalar abilene_network.client[5] 	avg_time[5] 	0
scalar abilene_network.client[5] 	interests_sent[5] 	634
scalar abilene_network.client[6] 	hdistance[6] 	1.928035982009
scalar abilene_network.client[6] 	downloads[6] 	667
scalar abilene_network.client[6] 	avg_time[6] 	0.002137331169
scalar abilene_network.client[6] 	interests_sent[6] 	667
scalar abilene_network.client[7] 	hdistance[7] 	2.9341692789969
scalar abilene_network.client[7] 	downloads[7] 	638
scalar abilene_network.client[7] 	avg_time[7] 	0.007887397957
scalar abilene_network.client[7] 	interests_sent[7] 	638
scalar abilene_network.client[8] 	hdistance[8] 	3.9033333333333
scalar abilene_network.client[8] 	downloads[8] 	600
scalar abilene_network.client[8] 	avg_time[8] 	0.015278366519
scalar abilene_network.client[8] 	interests_sent[8] 	600
scalar abilene_network.client[9] 	hdistance[9] 	4.8109305760709
scalar abilene_network.client[9] 	downloads[9] 	677
scalar abilene_network.client[9] 	avg_time[9] 	0.029447621696
scalar abilene_network.client[9] 	interests_sent[9] 	677
scalar abilene_network.client[10] 	hdistance[10] 	5.76
scalar abilene_network.client[10] 	downloads[10] 	675
scalar abilene_network.client[10] 	avg_time[10] 	0.029245836861
scalar abilene_network.client[10] 	interests_sent[10] 	675
