version 2
run General-951-20140502-02:52:14-9853
attr D fix0.5
attr F nrr
attr R lru
attr a 1
attr configname General
attr csize 1e3
attr ctlg 1e5
attr datetime 20140502-02:52:14
attr experiment General
attr inifile omnetpp.ini
attr iterationvars "$net=three_caches_scenario_3_links, $rep=2, $priceratiovalue=5, $weights=0.7_0.15_0.15, $a=1, $ctlg=1e5, $F=nrr, $ttl=1000, $D=fix0.5, $xi=1, $R=lru, $csize=1e3"
attr iterationvars2 "$net=three_caches_scenario_3_links, $rep=2, $priceratiovalue=5, $weights=0.7_0.15_0.15, $a=1, $ctlg=1e5, $F=nrr, $ttl=1000, $D=fix0.5, $xi=1, $R=lru, $csize=1e3, $repetition=0"
attr measurement "$net=three_caches_scenario_3_links, $rep=2, $priceratiovalue=5, $weights=0.7_0.15_0.15, $a=1, $ctlg=1e5, $F=nrr, $ttl=1000, $D=fix0.5, $xi=1, $R=lru, $csize=1e3"
attr net three_caches_scenario_3_links
attr network networks.${net=three_caches_scenario_3_links}_network
attr priceratiovalue 5
attr processid 9853
attr rep 2
attr repetition 0
attr replication #0
attr resultdir results
attr runnumber 951
attr seedset 2
attr ttl 1000
attr weights 0.7_0.15_0.15
attr xi 1

scalar . 	a 	1
scalar . 	csize 	1e3
scalar . 	ctlg 	1e5
scalar . 	priceratiovalue 	5
scalar . 	rep 	2
scalar . 	ttl 	1000
scalar . 	xi 	1
scalar three_caches_scenario_3_links_network.content_distribution 	repo-0 	4
scalar three_caches_scenario_3_links_network.content_distribution 	repo-1 	5
scalar three_caches_scenario_3_links_network.content_distribution 	repo-2 	6
scalar three_caches_scenario_3_links_network.content_distribution 	client-0 	0
scalar three_caches_scenario_3_links_network.content_distribution 	repo-0_card 	69917
scalar three_caches_scenario_3_links_network.content_distribution 	repo-1_card 	15037
scalar three_caches_scenario_3_links_network.content_distribution 	repo-2_card 	15046
scalar three_caches_scenario_3_links_network.statistics 	p_hit 	0.22429798249795
scalar three_caches_scenario_3_links_network.statistics 	interests 	54246.714285714
scalar three_caches_scenario_3_links_network.statistics 	data 	28542.428571429
scalar three_caches_scenario_3_links_network.statistics 	hdistance 	1.2340132273662
scalar three_caches_scenario_3_links_network.statistics 	avg_time 	0
scalar three_caches_scenario_3_links_network.statistics 	downloads 	179930
scalar three_caches_scenario_3_links_network.statistics 	total_cost 	65475
scalar three_caches_scenario_3_links_network.statistics 	total_replicas 	100000
scalar three_caches_scenario_3_links_network.statistics 	interests_sent 	179930
scalar three_caches_scenario_3_links_network.node[0].core_layer 	interests[0] 	179930
scalar three_caches_scenario_3_links_network.node[0].core_layer 	data[0] 	105039
scalar three_caches_scenario_3_links_network.node[0].core_layer 	repo_int[0] 	94758
scalar three_caches_scenario_3_links_network.node[0].content_store 	p_hit[0] 	0.41622297560162
scalar three_caches_scenario_3_links_network.node[0].content_store 	hits[0] 	74891
scalar three_caches_scenario_3_links_network.node[0].content_store 	misses[0] 	105039
scalar three_caches_scenario_3_links_network.node[0].content_store 	decision_yes[0] 	52662
scalar three_caches_scenario_3_links_network.node[0].content_store 	decision_no[0] 	52377
scalar three_caches_scenario_3_links_network.node[1].core_layer 	interests[1] 	72519
scalar three_caches_scenario_3_links_network.node[1].core_layer 	data[1] 	72519
scalar three_caches_scenario_3_links_network.node[1].content_store 	p_hit[1] 	0
scalar three_caches_scenario_3_links_network.node[1].content_store 	hits[1] 	0
scalar three_caches_scenario_3_links_network.node[1].content_store 	misses[1] 	72519
scalar three_caches_scenario_3_links_network.node[1].content_store 	decision_yes[1] 	0
scalar three_caches_scenario_3_links_network.node[1].content_store 	decision_no[1] 	72519
scalar three_caches_scenario_3_links_network.node[2].core_layer 	interests[2] 	16749
scalar three_caches_scenario_3_links_network.node[2].core_layer 	data[2] 	11430
scalar three_caches_scenario_3_links_network.node[2].content_store 	p_hit[2] 	0.31757119828049
scalar three_caches_scenario_3_links_network.node[2].content_store 	hits[2] 	5319
scalar three_caches_scenario_3_links_network.node[2].content_store 	misses[2] 	11430
scalar three_caches_scenario_3_links_network.node[2].content_store 	decision_yes[2] 	5828
scalar three_caches_scenario_3_links_network.node[2].content_store 	decision_no[2] 	5602
scalar three_caches_scenario_3_links_network.node[3].core_layer 	interests[3] 	15771
scalar three_caches_scenario_3_links_network.node[3].core_layer 	data[3] 	10809
scalar three_caches_scenario_3_links_network.node[3].content_store 	p_hit[3] 	0.31462811489443
scalar three_caches_scenario_3_links_network.node[3].content_store 	hits[3] 	4962
scalar three_caches_scenario_3_links_network.node[3].content_store 	misses[3] 	10809
scalar three_caches_scenario_3_links_network.node[3].content_store 	decision_yes[3] 	5376
scalar three_caches_scenario_3_links_network.node[3].content_store 	decision_no[3] 	5433
scalar three_caches_scenario_3_links_network.node[4].core_layer 	interests[4] 	72519
scalar three_caches_scenario_3_links_network.node[4].core_layer 	repo_load[4] 	72519
scalar three_caches_scenario_3_links_network.node[4].core_layer 	data[4] 	0
scalar three_caches_scenario_3_links_network.node[4].content_store 	p_hit[4] 	0
scalar three_caches_scenario_3_links_network.node[4].content_store 	hits[4] 	0
scalar three_caches_scenario_3_links_network.node[4].content_store 	misses[4] 	72519
scalar three_caches_scenario_3_links_network.node[4].content_store 	decision_yes[4] 	0
scalar three_caches_scenario_3_links_network.node[4].content_store 	decision_no[4] 	72519
scalar three_caches_scenario_3_links_network.node[5].core_layer 	interests[5] 	11430
scalar three_caches_scenario_3_links_network.node[5].core_layer 	repo_load[5] 	11430
scalar three_caches_scenario_3_links_network.node[5].core_layer 	data[5] 	0
scalar three_caches_scenario_3_links_network.node[5].content_store 	p_hit[5] 	0
scalar three_caches_scenario_3_links_network.node[5].content_store 	hits[5] 	0
scalar three_caches_scenario_3_links_network.node[5].content_store 	misses[5] 	11430
scalar three_caches_scenario_3_links_network.node[5].content_store 	decision_yes[5] 	0
scalar three_caches_scenario_3_links_network.node[5].content_store 	decision_no[5] 	11430
scalar three_caches_scenario_3_links_network.node[6].core_layer 	interests[6] 	10809
scalar three_caches_scenario_3_links_network.node[6].core_layer 	repo_load[6] 	10809
scalar three_caches_scenario_3_links_network.node[6].core_layer 	data[6] 	0
scalar three_caches_scenario_3_links_network.node[6].content_store 	p_hit[6] 	0
scalar three_caches_scenario_3_links_network.node[6].content_store 	hits[6] 	0
scalar three_caches_scenario_3_links_network.node[6].content_store 	misses[6] 	10809
scalar three_caches_scenario_3_links_network.node[6].content_store 	decision_yes[6] 	0
scalar three_caches_scenario_3_links_network.node[6].content_store 	decision_no[6] 	10809
scalar three_caches_scenario_3_links_network.client[0] 	hdistance[0] 	1.2340132273662
scalar three_caches_scenario_3_links_network.client[0] 	downloads[0] 	179930
scalar three_caches_scenario_3_links_network.client[0] 	avg_time[0] 	0
scalar three_caches_scenario_3_links_network.client[0] 	interests_sent[0] 	179930
