version 2
run General-2515-20140502-05:54:03-11468
attr D fix0.05
attr F nrr
attr R lru
attr a 1.2
attr configname General
attr csize 1e3
attr ctlg 1e5
attr datetime 20140502-05:54:03
attr experiment General
attr inifile omnetpp.ini
attr iterationvars "$net=three_caches_scenario_3_links, $rep=5, $priceratiovalue=2, $weights=0.2_0.4_0.4, $a=1.2, $ctlg=1e5, $F=nrr, $ttl=1000, $D=fix0.05, $xi=1, $R=lru, $csize=1e3"
attr iterationvars2 "$net=three_caches_scenario_3_links, $rep=5, $priceratiovalue=2, $weights=0.2_0.4_0.4, $a=1.2, $ctlg=1e5, $F=nrr, $ttl=1000, $D=fix0.05, $xi=1, $R=lru, $csize=1e3, $repetition=0"
attr measurement "$net=three_caches_scenario_3_links, $rep=5, $priceratiovalue=2, $weights=0.2_0.4_0.4, $a=1.2, $ctlg=1e5, $F=nrr, $ttl=1000, $D=fix0.05, $xi=1, $R=lru, $csize=1e3"
attr net three_caches_scenario_3_links
attr network networks.${net=three_caches_scenario_3_links}_network
attr priceratiovalue 2
attr processid 11468
attr rep 5
attr repetition 0
attr replication #0
attr resultdir results
attr runnumber 2515
attr seedset 5
attr ttl 1000
attr weights 0.2_0.4_0.4
attr xi 1

scalar . 	a 	1.2
scalar . 	csize 	1e3
scalar . 	ctlg 	1e5
scalar . 	priceratiovalue 	2
scalar . 	rep 	5
scalar . 	ttl 	1000
scalar . 	xi 	1
scalar three_caches_scenario_3_links_network.content_distribution 	repo-0 	4
scalar three_caches_scenario_3_links_network.content_distribution 	repo-1 	5
scalar three_caches_scenario_3_links_network.content_distribution 	repo-2 	6
scalar three_caches_scenario_3_links_network.content_distribution 	client-0 	0
scalar three_caches_scenario_3_links_network.content_distribution 	repo-0_card 	19937
scalar three_caches_scenario_3_links_network.content_distribution 	repo-1_card 	40032
scalar three_caches_scenario_3_links_network.content_distribution 	repo-2_card 	40031
scalar three_caches_scenario_3_links_network.statistics 	p_hit 	0.56610874440332
scalar three_caches_scenario_3_links_network.statistics 	interests 	36820.285714286
scalar three_caches_scenario_3_links_network.statistics 	data 	11019
scalar three_caches_scenario_3_links_network.statistics 	hdistance 	0.57299470126075
scalar three_caches_scenario_3_links_network.statistics 	avg_time 	0
scalar three_caches_scenario_3_links_network.statistics 	downloads 	180609
scalar three_caches_scenario_3_links_network.statistics 	total_cost 	39447
scalar three_caches_scenario_3_links_network.statistics 	total_replicas 	100000
scalar three_caches_scenario_3_links_network.statistics 	interests_sent 	180609
scalar three_caches_scenario_3_links_network.node[0].core_layer 	interests[0] 	180609
scalar three_caches_scenario_3_links_network.node[0].core_layer 	data[0] 	42434
scalar three_caches_scenario_3_links_network.node[0].core_layer 	repo_int[0] 	34699
scalar three_caches_scenario_3_links_network.node[0].content_store 	p_hit[0] 	0.76505046813835
scalar three_caches_scenario_3_links_network.node[0].content_store 	hits[0] 	138175
scalar three_caches_scenario_3_links_network.node[0].content_store 	misses[0] 	42434
scalar three_caches_scenario_3_links_network.node[0].content_store 	decision_yes[0] 	2160
scalar three_caches_scenario_3_links_network.node[0].content_store 	decision_no[0] 	40274
scalar three_caches_scenario_3_links_network.node[1].core_layer 	interests[1] 	8344
scalar three_caches_scenario_3_links_network.node[1].core_layer 	data[1] 	8344
scalar three_caches_scenario_3_links_network.node[1].content_store 	p_hit[1] 	0
scalar three_caches_scenario_3_links_network.node[1].content_store 	hits[1] 	0
scalar three_caches_scenario_3_links_network.node[1].content_store 	misses[1] 	8344
scalar three_caches_scenario_3_links_network.node[1].content_store 	decision_yes[1] 	0
scalar three_caches_scenario_3_links_network.node[1].content_store 	decision_no[1] 	8344
scalar three_caches_scenario_3_links_network.node[2].core_layer 	interests[2] 	17064
scalar three_caches_scenario_3_links_network.node[2].core_layer 	data[2] 	13263
scalar three_caches_scenario_3_links_network.node[2].content_store 	p_hit[2] 	0.22274964838256
scalar three_caches_scenario_3_links_network.node[2].content_store 	hits[2] 	3801
scalar three_caches_scenario_3_links_network.node[2].content_store 	misses[2] 	13263
scalar three_caches_scenario_3_links_network.node[2].content_store 	decision_yes[2] 	661
scalar three_caches_scenario_3_links_network.node[2].content_store 	decision_no[2] 	12602
scalar three_caches_scenario_3_links_network.node[3].core_layer 	interests[3] 	17026
scalar three_caches_scenario_3_links_network.node[3].core_layer 	data[3] 	13092
scalar three_caches_scenario_3_links_network.node[3].content_store 	p_hit[3] 	0.23105838129919
scalar three_caches_scenario_3_links_network.node[3].content_store 	hits[3] 	3934
scalar three_caches_scenario_3_links_network.node[3].content_store 	misses[3] 	13092
scalar three_caches_scenario_3_links_network.node[3].content_store 	decision_yes[3] 	662
scalar three_caches_scenario_3_links_network.node[3].content_store 	decision_no[3] 	12430
scalar three_caches_scenario_3_links_network.node[4].core_layer 	interests[4] 	8344
scalar three_caches_scenario_3_links_network.node[4].core_layer 	repo_load[4] 	8344
scalar three_caches_scenario_3_links_network.node[4].core_layer 	data[4] 	0
scalar three_caches_scenario_3_links_network.node[4].content_store 	p_hit[4] 	0
scalar three_caches_scenario_3_links_network.node[4].content_store 	hits[4] 	0
scalar three_caches_scenario_3_links_network.node[4].content_store 	misses[4] 	8344
scalar three_caches_scenario_3_links_network.node[4].content_store 	decision_yes[4] 	0
scalar three_caches_scenario_3_links_network.node[4].content_store 	decision_no[4] 	8344
scalar three_caches_scenario_3_links_network.node[5].core_layer 	interests[5] 	13263
scalar three_caches_scenario_3_links_network.node[5].core_layer 	repo_load[5] 	13263
scalar three_caches_scenario_3_links_network.node[5].core_layer 	data[5] 	0
scalar three_caches_scenario_3_links_network.node[5].content_store 	p_hit[5] 	0
scalar three_caches_scenario_3_links_network.node[5].content_store 	hits[5] 	0
scalar three_caches_scenario_3_links_network.node[5].content_store 	misses[5] 	13263
scalar three_caches_scenario_3_links_network.node[5].content_store 	decision_yes[5] 	0
scalar three_caches_scenario_3_links_network.node[5].content_store 	decision_no[5] 	13263
scalar three_caches_scenario_3_links_network.node[6].core_layer 	interests[6] 	13092
scalar three_caches_scenario_3_links_network.node[6].core_layer 	repo_load[6] 	13092
scalar three_caches_scenario_3_links_network.node[6].core_layer 	data[6] 	0
scalar three_caches_scenario_3_links_network.node[6].content_store 	p_hit[6] 	0
scalar three_caches_scenario_3_links_network.node[6].content_store 	hits[6] 	0
scalar three_caches_scenario_3_links_network.node[6].content_store 	misses[6] 	13092
scalar three_caches_scenario_3_links_network.node[6].content_store 	decision_yes[6] 	0
scalar three_caches_scenario_3_links_network.node[6].content_store 	decision_no[6] 	13092
scalar three_caches_scenario_3_links_network.client[0] 	hdistance[0] 	0.57299470126075
scalar three_caches_scenario_3_links_network.client[0] 	downloads[0] 	180609
scalar three_caches_scenario_3_links_network.client[0] 	avg_time[0] 	0
scalar three_caches_scenario_3_links_network.client[0] 	interests_sent[0] 	180609
