version 2
run General-389-20140423-18:41:36-26178
attr D prob_cache
attr F nrr
attr R lru
attr a 1.2
attr configname General
attr csize 2
attr ctlg 10^3
attr datetime 20140423-18:41:36
attr experiment General
attr inifile omnetpp.ini
attr iterationvars "$net=simple_scenario, $rep=2, $priceratiovalue=1, $a=1.2, $ctlg=10^3, $F=nrr, $ttl=1000, $D=prob_cache, $R=lru, $csize=2"
attr iterationvars2 "$net=simple_scenario, $rep=2, $priceratiovalue=1, $a=1.2, $ctlg=10^3, $F=nrr, $ttl=1000, $D=prob_cache, $R=lru, $csize=2, $repetition=0"
attr measurement "$net=simple_scenario, $rep=2, $priceratiovalue=1, $a=1.2, $ctlg=10^3, $F=nrr, $ttl=1000, $D=prob_cache, $R=lru, $csize=2"
attr net simple_scenario
attr network networks.${net=simple_scenario}_network
attr priceratiovalue 1
attr processid 26178
attr rep 2
attr repetition 0
attr replication #0
attr resultdir results
attr runnumber 389
attr seedset 2
attr ttl 1000

scalar . 	a 	1.2
scalar . 	csize 	2
scalar . 	priceratiovalue 	1
scalar . 	rep 	2
scalar . 	ttl 	1000
scalar simple_scenario_network.content_distribution 	repo-0 	3
scalar simple_scenario_network.content_distribution 	repo-1 	4
scalar simple_scenario_network.content_distribution 	client-0 	0
scalar simple_scenario_network.content_distribution 	repo-0_card 	504
scalar simple_scenario_network.content_distribution 	repo-1_card 	496
scalar simple_scenario_network.statistics 	p_hit 	0.12370277754953
scalar simple_scenario_network.statistics 	interests 	90057.8
scalar simple_scenario_network.statistics 	data 	54056.4
scalar simple_scenario_network.statistics 	hdistance 	2.1920647530374
scalar simple_scenario_network.statistics 	avg_time 	0.001985063421
scalar simple_scenario_network.statistics 	downloads 	180007
scalar simple_scenario_network.statistics 	total_cost 	62152
scalar simple_scenario_network.node[0].core_layer 	interests[0] 	180007
scalar simple_scenario_network.node[0].core_layer 	data[0] 	145977
scalar simple_scenario_network.node[0].core_layer 	repo_int[0] 	124305
scalar simple_scenario_network.node[0].content_store 	p_hit[0] 	0.18904820368097
scalar simple_scenario_network.node[0].content_store 	hits[0] 	34030
scalar simple_scenario_network.node[0].content_store 	misses[0] 	145977
scalar simple_scenario_network.node[1].core_layer 	interests[1] 	71584
scalar simple_scenario_network.node[1].core_layer 	data[1] 	60083
scalar simple_scenario_network.node[1].content_store 	p_hit[1] 	0.16066439427805
scalar simple_scenario_network.node[1].content_store 	hits[1] 	11501
scalar simple_scenario_network.node[1].content_store 	misses[1] 	60083
scalar simple_scenario_network.node[2].core_layer 	interests[2] 	74393
scalar simple_scenario_network.node[2].core_layer 	data[2] 	64222
scalar simple_scenario_network.node[2].content_store 	p_hit[2] 	0.13671985267431
scalar simple_scenario_network.node[2].content_store 	hits[2] 	10171
scalar simple_scenario_network.node[2].content_store 	misses[2] 	64222
scalar simple_scenario_network.node[3].core_layer 	interests[3] 	60083
scalar simple_scenario_network.node[3].core_layer 	repo_load[3] 	60083
scalar simple_scenario_network.node[3].core_layer 	data[3] 	0
scalar simple_scenario_network.node[3].content_store 	p_hit[3] 	0
scalar simple_scenario_network.node[3].content_store 	hits[3] 	0
scalar simple_scenario_network.node[3].content_store 	misses[3] 	60083
scalar simple_scenario_network.node[4].core_layer 	interests[4] 	64222
scalar simple_scenario_network.node[4].core_layer 	repo_load[4] 	64222
scalar simple_scenario_network.node[4].core_layer 	data[4] 	0
scalar simple_scenario_network.node[4].content_store 	p_hit[4] 	0
scalar simple_scenario_network.node[4].content_store 	hits[4] 	0
scalar simple_scenario_network.node[4].content_store 	misses[4] 	64222
scalar simple_scenario_network.client[0] 	hdistance[0] 	2.1920647530374
scalar simple_scenario_network.client[0] 	downloads[0] 	180007
scalar simple_scenario_network.client[0] 	avg_time[0] 	0.001985063421
