version 2
run General-749-20140423-18:50:54-26568
attr D prob_cache
attr F nrr
attr R lru
attr a 1.2
attr configname General
attr csize 2
attr ctlg 10^3
attr datetime 20140423-18:50:54
attr experiment General
attr inifile omnetpp.ini
attr iterationvars "$net=simple_scenario, $rep=3, $priceratiovalue=1, $a=1.2, $ctlg=10^3, $F=nrr, $ttl=1000, $D=prob_cache, $R=lru, $csize=2"
attr iterationvars2 "$net=simple_scenario, $rep=3, $priceratiovalue=1, $a=1.2, $ctlg=10^3, $F=nrr, $ttl=1000, $D=prob_cache, $R=lru, $csize=2, $repetition=0"
attr measurement "$net=simple_scenario, $rep=3, $priceratiovalue=1, $a=1.2, $ctlg=10^3, $F=nrr, $ttl=1000, $D=prob_cache, $R=lru, $csize=2"
attr net simple_scenario
attr network networks.${net=simple_scenario}_network
attr priceratiovalue 1
attr processid 26568
attr rep 3
attr repetition 0
attr replication #0
attr resultdir results
attr runnumber 749
attr seedset 3
attr ttl 1000

scalar . 	a 	1.2
scalar . 	csize 	2
scalar . 	priceratiovalue 	1
scalar . 	rep 	3
scalar . 	ttl 	1000
scalar simple_scenario_network.content_distribution 	repo-0 	3
scalar simple_scenario_network.content_distribution 	repo-1 	4
scalar simple_scenario_network.content_distribution 	client-0 	0
scalar simple_scenario_network.content_distribution 	repo-0_card 	524
scalar simple_scenario_network.content_distribution 	repo-1_card 	476
scalar simple_scenario_network.statistics 	p_hit 	0.11975673412021
scalar simple_scenario_network.statistics 	interests 	90501.8
scalar simple_scenario_network.statistics 	data 	54489.2
scalar simple_scenario_network.statistics 	hdistance 	2.2121035415382
scalar simple_scenario_network.statistics 	avg_time 	0.001985202798
scalar simple_scenario_network.statistics 	downloads 	180063
scalar simple_scenario_network.statistics 	total_cost 	62936
scalar simple_scenario_network.node[0].core_layer 	interests[0] 	180063
scalar simple_scenario_network.node[0].core_layer 	data[0] 	146574
scalar simple_scenario_network.node[0].core_layer 	repo_int[0] 	125872
scalar simple_scenario_network.node[0].content_store 	p_hit[0] 	0.18598490528315
scalar simple_scenario_network.node[0].content_store 	hits[0] 	33489
scalar simple_scenario_network.node[0].content_store 	misses[0] 	146574
scalar simple_scenario_network.node[1].core_layer 	interests[1] 	84676
scalar simple_scenario_network.node[1].core_layer 	data[1] 	70808
scalar simple_scenario_network.node[1].content_store 	p_hit[1] 	0.16377722140866
scalar simple_scenario_network.node[1].content_store 	hits[1] 	13868
scalar simple_scenario_network.node[1].content_store 	misses[1] 	70808
scalar simple_scenario_network.node[2].core_layer 	interests[2] 	61898
scalar simple_scenario_network.node[2].core_layer 	data[2] 	55064
scalar simple_scenario_network.node[2].content_store 	p_hit[2] 	0.11040744450548
scalar simple_scenario_network.node[2].content_store 	hits[2] 	6834
scalar simple_scenario_network.node[2].content_store 	misses[2] 	55064
scalar simple_scenario_network.node[3].core_layer 	interests[3] 	70808
scalar simple_scenario_network.node[3].core_layer 	repo_load[3] 	70808
scalar simple_scenario_network.node[3].core_layer 	data[3] 	0
scalar simple_scenario_network.node[3].content_store 	p_hit[3] 	0
scalar simple_scenario_network.node[3].content_store 	hits[3] 	0
scalar simple_scenario_network.node[3].content_store 	misses[3] 	70808
scalar simple_scenario_network.node[4].core_layer 	interests[4] 	55064
scalar simple_scenario_network.node[4].core_layer 	repo_load[4] 	55064
scalar simple_scenario_network.node[4].core_layer 	data[4] 	0
scalar simple_scenario_network.node[4].content_store 	p_hit[4] 	0
scalar simple_scenario_network.node[4].content_store 	hits[4] 	0
scalar simple_scenario_network.node[4].content_store 	misses[4] 	55064
scalar simple_scenario_network.client[0] 	hdistance[0] 	2.2121035415382
scalar simple_scenario_network.client[0] 	downloads[0] 	180063
scalar simple_scenario_network.client[0] 	avg_time[0] 	0.001985202798
