version 2
run General-4827-20140423-20:33:58-31994
attr D fix0.1
attr F nrr
attr R lru
attr a 0
attr configname General
attr csize 2
attr ctlg 10^3
attr datetime 20140423-20:33:58
attr experiment General
attr inifile omnetpp.ini
attr iterationvars "$net=simple_scenario, $rep=14, $priceratiovalue=5, $a=0, $ctlg=10^3, $F=nrr, $ttl=1000, $D=fix0.1, $R=lru, $csize=2"
attr iterationvars2 "$net=simple_scenario, $rep=14, $priceratiovalue=5, $a=0, $ctlg=10^3, $F=nrr, $ttl=1000, $D=fix0.1, $R=lru, $csize=2, $repetition=0"
attr measurement "$net=simple_scenario, $rep=14, $priceratiovalue=5, $a=0, $ctlg=10^3, $F=nrr, $ttl=1000, $D=fix0.1, $R=lru, $csize=2"
attr net simple_scenario
attr network networks.${net=simple_scenario}_network
attr priceratiovalue 5
attr processid 31994
attr rep 14
attr repetition 0
attr replication #0
attr resultdir results
attr runnumber 4827
attr seedset 14
attr ttl 1000

scalar . 	a 	0
scalar . 	csize 	2
scalar . 	priceratiovalue 	5
scalar . 	rep 	14
scalar . 	ttl 	1000
scalar simple_scenario_network.content_distribution 	repo-0 	3
scalar simple_scenario_network.content_distribution 	repo-1 	4
scalar simple_scenario_network.content_distribution 	client-0 	0
scalar simple_scenario_network.content_distribution 	repo-0_card 	487
scalar simple_scenario_network.content_distribution 	repo-1_card 	513
scalar simple_scenario_network.statistics 	p_hit 	0.0019688549436833
scalar simple_scenario_network.statistics 	interests 	107676.8
scalar simple_scenario_network.statistics 	data 	71688.8
scalar simple_scenario_network.statistics 	hdistance 	2.9861287095699
scalar simple_scenario_network.statistics 	avg_time 	0.0019997377
scalar simple_scenario_network.statistics 	downloads 	179940
scalar simple_scenario_network.statistics 	total_cost 	90947
scalar simple_scenario_network.node[0].core_layer 	interests[0] 	179940
scalar simple_scenario_network.node[0].core_layer 	data[0] 	179564
scalar simple_scenario_network.node[0].core_layer 	repo_int[0] 	178880
scalar simple_scenario_network.node[0].content_store 	p_hit[0] 	0.0020895854173613
scalar simple_scenario_network.node[0].content_store 	hits[0] 	376
scalar simple_scenario_network.node[0].content_store 	misses[0] 	179564
scalar simple_scenario_network.node[1].core_layer 	interests[1] 	87512
scalar simple_scenario_network.node[1].core_layer 	data[1] 	87178
scalar simple_scenario_network.node[1].content_store 	p_hit[1] 	0.0038166194350489
scalar simple_scenario_network.node[1].content_store 	hits[1] 	334
scalar simple_scenario_network.node[1].content_store 	misses[1] 	87178
scalar simple_scenario_network.node[2].core_layer 	interests[2] 	92052
scalar simple_scenario_network.node[2].core_layer 	data[2] 	91702
scalar simple_scenario_network.node[2].content_store 	p_hit[2] 	0.0038021987572242
scalar simple_scenario_network.node[2].content_store 	hits[2] 	350
scalar simple_scenario_network.node[2].content_store 	misses[2] 	91702
scalar simple_scenario_network.node[3].core_layer 	interests[3] 	87178
scalar simple_scenario_network.node[3].core_layer 	repo_load[3] 	87178
scalar simple_scenario_network.node[3].core_layer 	data[3] 	0
scalar simple_scenario_network.node[3].content_store 	p_hit[3] 	0
scalar simple_scenario_network.node[3].content_store 	hits[3] 	0
scalar simple_scenario_network.node[3].content_store 	misses[3] 	87178
scalar simple_scenario_network.node[4].core_layer 	interests[4] 	91702
scalar simple_scenario_network.node[4].core_layer 	repo_load[4] 	91702
scalar simple_scenario_network.node[4].core_layer 	data[4] 	0
scalar simple_scenario_network.node[4].content_store 	p_hit[4] 	0
scalar simple_scenario_network.node[4].content_store 	hits[4] 	0
scalar simple_scenario_network.node[4].content_store 	misses[4] 	91702
scalar simple_scenario_network.client[0] 	hdistance[0] 	2.9861287095699
scalar simple_scenario_network.client[0] 	downloads[0] 	179940
scalar simple_scenario_network.client[0] 	avg_time[0] 	0.0019997377
