version 2
run General-2422-20140502-05:46:42-11373
attr D costprob0.005
attr F nrr
attr R lru
attr a 0.8
attr configname General
attr csize 1e3
attr ctlg 1e5
attr datetime 20140502-05:46:42
attr experiment General
attr inifile omnetpp.ini
attr iterationvars "$net=three_caches_scenario_3_links, $rep=5, $priceratiovalue=1, $weights=0_0.5_0.5, $a=0.8, $ctlg=1e5, $F=nrr, $ttl=1000, $D=costprob0.005, $xi=1, $R=lru, $csize=1e3"
attr iterationvars2 "$net=three_caches_scenario_3_links, $rep=5, $priceratiovalue=1, $weights=0_0.5_0.5, $a=0.8, $ctlg=1e5, $F=nrr, $ttl=1000, $D=costprob0.005, $xi=1, $R=lru, $csize=1e3, $repetition=0"
attr measurement "$net=three_caches_scenario_3_links, $rep=5, $priceratiovalue=1, $weights=0_0.5_0.5, $a=0.8, $ctlg=1e5, $F=nrr, $ttl=1000, $D=costprob0.005, $xi=1, $R=lru, $csize=1e3"
attr net three_caches_scenario_3_links
attr network networks.${net=three_caches_scenario_3_links}_network
attr priceratiovalue 1
attr processid 11373
attr rep 5
attr repetition 0
attr replication #0
attr resultdir results
attr runnumber 2422
attr seedset 5
attr ttl 1000
attr weights 0_0.5_0.5
attr xi 1

scalar . 	a 	0.8
scalar . 	csize 	1e3
scalar . 	ctlg 	1e5
scalar . 	priceratiovalue 	1
scalar . 	rep 	5
scalar . 	ttl 	1000
scalar . 	xi 	1
scalar three_caches_scenario_3_links_network.content_distribution 	repo-0 	4
scalar three_caches_scenario_3_links_network.content_distribution 	repo-1 	5
scalar three_caches_scenario_3_links_network.content_distribution 	repo-2 	6
scalar three_caches_scenario_3_links_network.content_distribution 	client-0 	0
scalar three_caches_scenario_3_links_network.content_distribution 	repo-0_card 	0
scalar three_caches_scenario_3_links_network.content_distribution 	repo-1_card 	49909
scalar three_caches_scenario_3_links_network.content_distribution 	repo-2_card 	50091
scalar three_caches_scenario_3_links_network.statistics 	p_hit 	0.096695084971221
scalar three_caches_scenario_3_links_network.statistics 	interests 	67981
scalar three_caches_scenario_3_links_network.statistics 	data 	42164.142857143
scalar three_caches_scenario_3_links_network.statistics 	hdistance 	2.3785843136822
scalar three_caches_scenario_3_links_network.statistics 	avg_time 	0
scalar three_caches_scenario_3_links_network.statistics 	downloads 	180718
scalar three_caches_scenario_3_links_network.statistics 	total_cost 	134704
scalar three_caches_scenario_3_links_network.statistics 	total_replicas 	100000
scalar three_caches_scenario_3_links_network.statistics 	interests_sent 	180718
scalar three_caches_scenario_3_links_network.node[0].core_layer 	interests[0] 	180718
scalar three_caches_scenario_3_links_network.node[0].core_layer 	data[0] 	160445
scalar three_caches_scenario_3_links_network.node[0].core_layer 	repo_int[0] 	134704
scalar three_caches_scenario_3_links_network.node[0].content_store 	p_hit[0] 	0.11218030301353
scalar three_caches_scenario_3_links_network.node[0].content_store 	hits[0] 	20273
scalar three_caches_scenario_3_links_network.node[0].content_store 	misses[0] 	160445
scalar three_caches_scenario_3_links_network.node[0].content_store 	decision_yes[0] 	695
scalar three_caches_scenario_3_links_network.node[0].content_store 	decision_no[0] 	159750
scalar three_caches_scenario_3_links_network.node[1].core_layer 	interests[1] 	0
scalar three_caches_scenario_3_links_network.node[1].core_layer 	data[1] 	0
scalar three_caches_scenario_3_links_network.node[1].content_store 	p_hit[1] 	-nan
scalar three_caches_scenario_3_links_network.node[1].content_store 	hits[1] 	0
scalar three_caches_scenario_3_links_network.node[1].content_store 	misses[1] 	0
scalar three_caches_scenario_3_links_network.node[1].content_store 	decision_yes[1] 	0
scalar three_caches_scenario_3_links_network.node[1].content_store 	decision_no[1] 	0
scalar three_caches_scenario_3_links_network.node[2].core_layer 	interests[2] 	82534
scalar three_caches_scenario_3_links_network.node[2].core_layer 	data[2] 	67698
scalar three_caches_scenario_3_links_network.node[2].content_store 	p_hit[2] 	0.17975622167834
scalar three_caches_scenario_3_links_network.node[2].content_store 	hits[2] 	14836
scalar three_caches_scenario_3_links_network.node[2].content_store 	misses[2] 	67698
scalar three_caches_scenario_3_links_network.node[2].content_store 	decision_yes[2] 	342
scalar three_caches_scenario_3_links_network.node[2].content_store 	decision_no[2] 	67356
scalar three_caches_scenario_3_links_network.node[3].core_layer 	interests[3] 	77911
scalar three_caches_scenario_3_links_network.node[3].core_layer 	data[3] 	67006
scalar three_caches_scenario_3_links_network.node[3].content_store 	p_hit[3] 	0.13996739869851
scalar three_caches_scenario_3_links_network.node[3].content_store 	hits[3] 	10905
scalar three_caches_scenario_3_links_network.node[3].content_store 	misses[3] 	67006
scalar three_caches_scenario_3_links_network.node[3].content_store 	decision_yes[3] 	351
scalar three_caches_scenario_3_links_network.node[3].content_store 	decision_no[3] 	66655
scalar three_caches_scenario_3_links_network.node[4].core_layer 	interests[4] 	0
scalar three_caches_scenario_3_links_network.node[4].core_layer 	data[4] 	0
scalar three_caches_scenario_3_links_network.node[4].content_store 	p_hit[4] 	-nan
scalar three_caches_scenario_3_links_network.node[4].content_store 	hits[4] 	0
scalar three_caches_scenario_3_links_network.node[4].content_store 	misses[4] 	0
scalar three_caches_scenario_3_links_network.node[4].content_store 	decision_yes[4] 	0
scalar three_caches_scenario_3_links_network.node[4].content_store 	decision_no[4] 	0
scalar three_caches_scenario_3_links_network.node[5].core_layer 	interests[5] 	67698
scalar three_caches_scenario_3_links_network.node[5].core_layer 	repo_load[5] 	67698
scalar three_caches_scenario_3_links_network.node[5].core_layer 	data[5] 	0
scalar three_caches_scenario_3_links_network.node[5].content_store 	p_hit[5] 	0
scalar three_caches_scenario_3_links_network.node[5].content_store 	hits[5] 	0
scalar three_caches_scenario_3_links_network.node[5].content_store 	misses[5] 	67698
scalar three_caches_scenario_3_links_network.node[5].content_store 	decision_yes[5] 	0
scalar three_caches_scenario_3_links_network.node[5].content_store 	decision_no[5] 	67698
scalar three_caches_scenario_3_links_network.node[6].core_layer 	interests[6] 	67006
scalar three_caches_scenario_3_links_network.node[6].core_layer 	repo_load[6] 	67006
scalar three_caches_scenario_3_links_network.node[6].core_layer 	data[6] 	0
scalar three_caches_scenario_3_links_network.node[6].content_store 	p_hit[6] 	0
scalar three_caches_scenario_3_links_network.node[6].content_store 	hits[6] 	0
scalar three_caches_scenario_3_links_network.node[6].content_store 	misses[6] 	67006
scalar three_caches_scenario_3_links_network.node[6].content_store 	decision_yes[6] 	0
scalar three_caches_scenario_3_links_network.node[6].content_store 	decision_no[6] 	67006
scalar three_caches_scenario_3_links_network.client[0] 	hdistance[0] 	2.3785843136822
scalar three_caches_scenario_3_links_network.client[0] 	downloads[0] 	180718
scalar three_caches_scenario_3_links_network.client[0] 	avg_time[0] 	0
scalar three_caches_scenario_3_links_network.client[0] 	interests_sent[0] 	180718
