version 2
run General-7-20140625-19:30:47-12847
attr D costprobprodcorr0.01
attr F spr
attr R lru
attr a 1
attr configname General
attr csize 1e3
attr ctlg 1e5
attr datetime 20140625-19:30:47
attr experiment General
attr inifile omnetpp.ini
attr iterationvars "$net=geant_cost, $rep=1, $priceratiovalue=10, $weights=0.333_0.333_0.334, $lambda=100, $a=1, $ctlg=1e5, $F=spr, $ttl=1000, $D=costprobprodcorr0.01, $xi=1.75, $R=lru, $csize=1e3, $pricebits=0, $mytime=1800"
attr iterationvars2 "$net=geant_cost, $rep=1, $priceratiovalue=10, $weights=0.333_0.333_0.334, $lambda=100, $a=1, $ctlg=1e5, $F=spr, $ttl=1000, $D=costprobprodcorr0.01, $xi=1.75, $R=lru, $csize=1e3, $pricebits=0, $mytime=1800, $repetition=0"
attr lambda 100
attr measurement "$net=geant_cost, $rep=1, $priceratiovalue=10, $weights=0.333_0.333_0.334, $lambda=100, $a=1, $ctlg=1e5, $F=spr, $ttl=1000, $D=costprobprodcorr0.01, $xi=1.75, $R=lru, $csize=1e3, $pricebits=0, $mytime=1800"
attr mytime 1800
attr net geant_cost
attr network "networks.${net=geant_cost, abilene_cost}_network"
attr pricebits 0
attr priceratiovalue 10
attr processid 12847
attr rep 1
attr repetition 0
attr replication #0
attr resultdir results
attr runnumber 7
attr seedset 1
attr ttl 1000
attr weights 0.333_0.333_0.334
attr xi 1.75

scalar . 	a 	1
scalar . 	csize 	1e3
scalar . 	ctlg 	1e5
scalar . 	lambda 	100
scalar . 	mytime 	1800
scalar . 	pricebits 	0
scalar . 	priceratiovalue 	10
scalar . 	rep 	1
scalar . 	ttl 	1000
scalar . 	xi 	1.75
scalar geant_cost_network.content_distribution 	repo-0 	22
scalar geant_cost_network.content_distribution 	repo-1 	23
scalar geant_cost_network.content_distribution 	repo-2 	24
scalar geant_cost_network.content_distribution 	client-0 	20
scalar geant_cost_network.content_distribution 	client-1 	10
scalar geant_cost_network.content_distribution 	client-2 	12
scalar geant_cost_network.content_distribution 	client-3 	9
scalar geant_cost_network.content_distribution 	client-4 	5
scalar geant_cost_network.content_distribution 	repo-0_card 	33396
scalar geant_cost_network.content_distribution 	repo-1_card 	33039
scalar geant_cost_network.content_distribution 	repo-2_card 	33565
scalar geant_cost_network.statistics 	repo_popularity[0] 	0.28686251265602
scalar geant_cost_network.statistics 	repo_popularity[1] 	0.2886063426465
scalar geant_cost_network.statistics 	repo_popularity[2] 	0.42453114469748
scalar geant_cost_network.statistics 	stabilization_time 	36060
scalar geant_cost_network.node[7].face$o[4].channel 	price[7] 	0
scalar geant_cost_network.node[7].face$o[4].channel 	represented_price[7] 	0
scalar geant_cost_network.node[8].face$o[3].channel 	price[8] 	0
scalar geant_cost_network.node[8].face$o[3].channel 	represented_price[8] 	0
scalar geant_cost_network.node[21].face$o[5].channel 	price[21] 	0
scalar geant_cost_network.node[21].face$o[5].channel 	represented_price[21] 	0
scalar geant_cost_network.node[22].face$o[1].channel 	price[22] 	0
scalar geant_cost_network.node[22].face$o[1].channel 	represented_price[22] 	0
scalar geant_cost_network.node[23].face$o[1].channel 	price[23] 	1
scalar geant_cost_network.node[23].face$o[1].channel 	represented_price[23] 	1
scalar geant_cost_network.node[24].face$o[1].channel 	price[24] 	10
scalar geant_cost_network.node[24].face$o[1].channel 	represented_price[24] 	10
scalar geant_cost_network.statistics 	p_hit 	0.092061799958745
scalar geant_cost_network.statistics 	interests 	140784.56
scalar geant_cost_network.statistics 	data 	104771.08
scalar geant_cost_network.statistics 	hdistance 	3.5645486846512
scalar geant_cost_network.statistics 	avg_time 	0.005787300771
scalar geant_cost_network.statistics 	downloads 	895609
scalar geant_cost_network.statistics 	total_cost 	1732772
scalar geant_cost_network.statistics 	total_replicas 	100000
scalar geant_cost_network.statistics 	inner_hit 	0.36471495931818
scalar geant_cost_network.statistics 	interests_sent 	900331
scalar geant_cost_network.node[0].core_layer 	interests[0] 	0
scalar geant_cost_network.node[0].core_layer 	data[0] 	0
scalar geant_cost_network.node[0].core_layer 	repo_int[0] 	568967
scalar geant_cost_network.node[0].content_store 	p_hit[0] 	-nan
scalar geant_cost_network.node[0].content_store 	hits[0] 	0
scalar geant_cost_network.node[0].content_store 	misses[0] 	0
scalar geant_cost_network.node[0].content_store 	decision_yes[0] 	0
scalar geant_cost_network.node[0].content_store 	decision_no[0] 	0
scalar geant_cost_network.node[0].content_store 	decision_ratio[0] 	0
scalar geant_cost_network.node[0].content_store 	correction_factor[0] 	0.00052314387834144
scalar geant_cost_network.node[0].content_store 	xi[0] 	1.75
scalar geant_cost_network.node[1].core_layer 	interests[1] 	0
scalar geant_cost_network.node[1].core_layer 	data[1] 	0
scalar geant_cost_network.node[1].content_store 	p_hit[1] 	-nan
scalar geant_cost_network.node[1].content_store 	hits[1] 	0
scalar geant_cost_network.node[1].content_store 	misses[1] 	0
scalar geant_cost_network.node[1].content_store 	decision_yes[1] 	0
scalar geant_cost_network.node[1].content_store 	decision_no[1] 	0
scalar geant_cost_network.node[1].content_store 	decision_ratio[1] 	0
scalar geant_cost_network.node[1].content_store 	correction_factor[1] 	0.00052314387834144
scalar geant_cost_network.node[1].content_store 	xi[1] 	1.75
scalar geant_cost_network.node[2].core_layer 	interests[2] 	0
scalar geant_cost_network.node[2].core_layer 	data[2] 	0
scalar geant_cost_network.node[2].content_store 	p_hit[2] 	-nan
scalar geant_cost_network.node[2].content_store 	hits[2] 	0
scalar geant_cost_network.node[2].content_store 	misses[2] 	0
scalar geant_cost_network.node[2].content_store 	decision_yes[2] 	0
scalar geant_cost_network.node[2].content_store 	decision_no[2] 	0
scalar geant_cost_network.node[2].content_store 	decision_ratio[2] 	0
scalar geant_cost_network.node[2].content_store 	correction_factor[2] 	0.00052314387834144
scalar geant_cost_network.node[2].content_store 	xi[2] 	1.75
scalar geant_cost_network.node[3].core_layer 	interests[3] 	225352
scalar geant_cost_network.node[3].core_layer 	data[3] 	173307
scalar geant_cost_network.node[3].content_store 	p_hit[3] 	0.23094092797046
scalar geant_cost_network.node[3].content_store 	hits[3] 	52043
scalar geant_cost_network.node[3].content_store 	misses[3] 	173309
scalar geant_cost_network.node[3].content_store 	decision_yes[3] 	2758
scalar geant_cost_network.node[3].content_store 	decision_no[3] 	170549
scalar geant_cost_network.node[3].content_store 	decision_ratio[3] 	0.015913956158724
scalar geant_cost_network.node[3].content_store 	correction_factor[3] 	0.00052314387834144
scalar geant_cost_network.node[3].content_store 	xi[3] 	1.75
scalar geant_cost_network.node[4].core_layer 	interests[4] 	272138
scalar geant_cost_network.node[4].core_layer 	data[4] 	258019
scalar geant_cost_network.node[4].content_store 	p_hit[4] 	0.051642916461501
scalar geant_cost_network.node[4].content_store 	hits[4] 	14054
scalar geant_cost_network.node[4].content_store 	misses[4] 	258084
scalar geant_cost_network.node[4].content_store 	decision_yes[4] 	2785
scalar geant_cost_network.node[4].content_store 	decision_no[4] 	255234
scalar geant_cost_network.node[4].content_store 	decision_ratio[4] 	0.010793778752728
scalar geant_cost_network.node[4].content_store 	correction_factor[4] 	0.00052314387834144
scalar geant_cost_network.node[4].content_store 	xi[4] 	1.75
scalar geant_cost_network.node[5].core_layer 	interests[5] 	179797
scalar geant_cost_network.node[5].core_layer 	data[5] 	166746
scalar geant_cost_network.node[5].content_store 	p_hit[5] 	0.060929826415346
scalar geant_cost_network.node[5].content_store 	hits[5] 	10955
scalar geant_cost_network.node[5].content_store 	misses[5] 	168842
scalar geant_cost_network.node[5].content_store 	decision_yes[5] 	1001
scalar geant_cost_network.node[5].content_store 	decision_no[5] 	165745
scalar geant_cost_network.node[5].content_store 	decision_ratio[5] 	0.006003142504168
scalar geant_cost_network.node[5].content_store 	correction_factor[5] 	0.00052314387834144
scalar geant_cost_network.node[5].content_store 	xi[5] 	1.75
scalar geant_cost_network.node[6].core_layer 	interests[6] 	100744
scalar geant_cost_network.node[6].core_layer 	data[6] 	96641
scalar geant_cost_network.node[6].content_store 	p_hit[6] 	0.040726991185579
scalar geant_cost_network.node[6].content_store 	hits[6] 	4103
scalar geant_cost_network.node[6].content_store 	misses[6] 	96641
scalar geant_cost_network.node[6].content_store 	decision_yes[6] 	14
scalar geant_cost_network.node[6].content_store 	decision_no[6] 	96627
scalar geant_cost_network.node[6].content_store 	decision_ratio[6] 	0.00014486605064103
scalar geant_cost_network.node[6].content_store 	correction_factor[6] 	0.00052314387834144
scalar geant_cost_network.node[6].content_store 	xi[6] 	1.75
scalar geant_cost_network.node[7].core_layer 	interests[7] 	350053
scalar geant_cost_network.node[7].core_layer 	data[7] 	340055
scalar geant_cost_network.node[7].content_store 	p_hit[7] 	0.028401413500241
scalar geant_cost_network.node[7].content_store 	hits[7] 	9942
scalar geant_cost_network.node[7].content_store 	misses[7] 	340111
scalar geant_cost_network.node[7].content_store 	decision_yes[7] 	30
scalar geant_cost_network.node[7].content_store 	decision_no[7] 	340025
scalar geant_cost_network.node[7].content_store 	decision_ratio[7] 	8.8221023069798e-05
scalar geant_cost_network.node[7].content_store 	correction_factor[7] 	0.00052314387834144
scalar geant_cost_network.node[7].content_store 	xi[7] 	1.75
scalar geant_cost_network.node[8].core_layer 	interests[8] 	331754
scalar geant_cost_network.node[8].core_layer 	data[8] 	257397
scalar geant_cost_network.node[8].content_store 	p_hit[8] 	0.22413294187862
scalar geant_cost_network.node[8].content_store 	hits[8] 	74357
scalar geant_cost_network.node[8].content_store 	misses[8] 	257397
scalar geant_cost_network.node[8].content_store 	decision_yes[8] 	84
scalar geant_cost_network.node[8].content_store 	decision_no[8] 	257313
scalar geant_cost_network.node[8].content_store 	decision_ratio[8] 	0.00032634412988496
scalar geant_cost_network.node[8].content_store 	correction_factor[8] 	0.00052314387834144
scalar geant_cost_network.node[8].content_store 	xi[8] 	1.75
scalar geant_cost_network.node[9].core_layer 	interests[9] 	407494
scalar geant_cost_network.node[9].core_layer 	data[9] 	390704
scalar geant_cost_network.node[9].content_store 	p_hit[9] 	0.036380903767908
scalar geant_cost_network.node[9].content_store 	hits[9] 	14825
scalar geant_cost_network.node[9].content_store 	misses[9] 	392669
scalar geant_cost_network.node[9].content_store 	decision_yes[9] 	1876
scalar geant_cost_network.node[9].content_store 	decision_no[9] 	388828
scalar geant_cost_network.node[9].content_store 	decision_ratio[9] 	0.0048015889266555
scalar geant_cost_network.node[9].content_store 	correction_factor[9] 	0.00052314387834144
scalar geant_cost_network.node[9].content_store 	xi[9] 	1.75
scalar geant_cost_network.node[10].core_layer 	interests[10] 	180099
scalar geant_cost_network.node[10].core_layer 	data[10] 	175647
scalar geant_cost_network.node[10].content_store 	p_hit[10] 	0.019250523323283
scalar geant_cost_network.node[10].content_store 	hits[10] 	3467
scalar geant_cost_network.node[10].content_store 	misses[10] 	176632
scalar geant_cost_network.node[10].content_store 	decision_yes[10] 	884
scalar geant_cost_network.node[10].content_store 	decision_no[10] 	174763
scalar geant_cost_network.node[10].content_store 	decision_ratio[10] 	0.0050328215113267
scalar geant_cost_network.node[10].content_store 	correction_factor[10] 	0.00052314387834144
scalar geant_cost_network.node[10].content_store 	xi[10] 	1.75
scalar geant_cost_network.node[11].core_layer 	interests[11] 	0
scalar geant_cost_network.node[11].core_layer 	data[11] 	0
scalar geant_cost_network.node[11].content_store 	p_hit[11] 	-nan
scalar geant_cost_network.node[11].content_store 	hits[11] 	0
scalar geant_cost_network.node[11].content_store 	misses[11] 	0
scalar geant_cost_network.node[11].content_store 	decision_yes[11] 	0
scalar geant_cost_network.node[11].content_store 	decision_no[11] 	0
scalar geant_cost_network.node[11].content_store 	decision_ratio[11] 	0
scalar geant_cost_network.node[11].content_store 	correction_factor[11] 	0.00052314387834144
scalar geant_cost_network.node[11].content_store 	xi[11] 	1.75
scalar geant_cost_network.node[12].core_layer 	interests[12] 	321591
scalar geant_cost_network.node[12].core_layer 	data[12] 	277254
scalar geant_cost_network.node[12].content_store 	p_hit[12] 	0.13268095189231
scalar geant_cost_network.node[12].content_store 	hits[12] 	42669
scalar geant_cost_network.node[12].content_store 	misses[12] 	278922
scalar geant_cost_network.node[12].content_store 	decision_yes[12] 	2755
scalar geant_cost_network.node[12].content_store 	decision_no[12] 	274499
scalar geant_cost_network.node[12].content_store 	decision_ratio[12] 	0.0099367367107418
scalar geant_cost_network.node[12].content_store 	correction_factor[12] 	0.00052314387834144
scalar geant_cost_network.node[12].content_store 	xi[12] 	1.75
scalar geant_cost_network.node[13].core_layer 	interests[13] 	0
scalar geant_cost_network.node[13].core_layer 	data[13] 	0
scalar geant_cost_network.node[13].content_store 	p_hit[13] 	-nan
scalar geant_cost_network.node[13].content_store 	hits[13] 	0
scalar geant_cost_network.node[13].content_store 	misses[13] 	0
scalar geant_cost_network.node[13].content_store 	decision_yes[13] 	0
scalar geant_cost_network.node[13].content_store 	decision_no[13] 	0
scalar geant_cost_network.node[13].content_store 	decision_ratio[13] 	0
scalar geant_cost_network.node[13].content_store 	correction_factor[13] 	0.00052314387834144
scalar geant_cost_network.node[13].content_store 	xi[13] 	1.75
scalar geant_cost_network.node[14].core_layer 	interests[14] 	66003
scalar geant_cost_network.node[14].core_layer 	data[14] 	60143
scalar geant_cost_network.node[14].content_store 	p_hit[14] 	0.088783843158644
scalar geant_cost_network.node[14].content_store 	hits[14] 	5860
scalar geant_cost_network.node[14].content_store 	misses[14] 	60143
scalar geant_cost_network.node[14].content_store 	decision_yes[14] 	937
scalar geant_cost_network.node[14].content_store 	decision_no[14] 	59206
scalar geant_cost_network.node[14].content_store 	decision_ratio[14] 	0.015579535440533
scalar geant_cost_network.node[14].content_store 	correction_factor[14] 	0.00052314387834144
scalar geant_cost_network.node[14].content_store 	xi[14] 	1.75
scalar geant_cost_network.node[15].core_layer 	interests[15] 	0
scalar geant_cost_network.node[15].core_layer 	data[15] 	0
scalar geant_cost_network.node[15].content_store 	p_hit[15] 	-nan
scalar geant_cost_network.node[15].content_store 	hits[15] 	0
scalar geant_cost_network.node[15].content_store 	misses[15] 	0
scalar geant_cost_network.node[15].content_store 	decision_yes[15] 	0
scalar geant_cost_network.node[15].content_store 	decision_no[15] 	0
scalar geant_cost_network.node[15].content_store 	decision_ratio[15] 	0
scalar geant_cost_network.node[15].content_store 	correction_factor[15] 	0.00052314387834144
scalar geant_cost_network.node[15].content_store 	xi[15] 	1.75
scalar geant_cost_network.node[16].core_layer 	interests[16] 	0
scalar geant_cost_network.node[16].core_layer 	data[16] 	0
scalar geant_cost_network.node[16].content_store 	p_hit[16] 	-nan
scalar geant_cost_network.node[16].content_store 	hits[16] 	0
scalar geant_cost_network.node[16].content_store 	misses[16] 	0
scalar geant_cost_network.node[16].content_store 	decision_yes[16] 	0
scalar geant_cost_network.node[16].content_store 	decision_no[16] 	0
scalar geant_cost_network.node[16].content_store 	decision_ratio[16] 	0
scalar geant_cost_network.node[16].content_store 	correction_factor[16] 	0.00052314387834144
scalar geant_cost_network.node[16].content_store 	xi[16] 	1.75
scalar geant_cost_network.node[17].core_layer 	interests[17] 	0
scalar geant_cost_network.node[17].core_layer 	data[17] 	0
scalar geant_cost_network.node[17].content_store 	p_hit[17] 	-nan
scalar geant_cost_network.node[17].content_store 	hits[17] 	0
scalar geant_cost_network.node[17].content_store 	misses[17] 	0
scalar geant_cost_network.node[17].content_store 	decision_yes[17] 	0
scalar geant_cost_network.node[17].content_store 	decision_no[17] 	0
scalar geant_cost_network.node[17].content_store 	decision_ratio[17] 	0
scalar geant_cost_network.node[17].content_store 	correction_factor[17] 	0.00052314387834144
scalar geant_cost_network.node[17].content_store 	xi[17] 	1.75
scalar geant_cost_network.node[18].core_layer 	interests[18] 	102638
scalar geant_cost_network.node[18].core_layer 	data[18] 	98829
scalar geant_cost_network.node[18].content_store 	p_hit[18] 	0.037111011516203
scalar geant_cost_network.node[18].content_store 	hits[18] 	3809
scalar geant_cost_network.node[18].content_store 	misses[18] 	98829
scalar geant_cost_network.node[18].content_store 	decision_yes[18] 	17
scalar geant_cost_network.node[18].content_store 	decision_no[18] 	98812
scalar geant_cost_network.node[18].content_store 	decision_ratio[18] 	0.00017201428730433
scalar geant_cost_network.node[18].content_store 	correction_factor[18] 	0.00052314387834144
scalar geant_cost_network.node[18].content_store 	xi[18] 	1.75
scalar geant_cost_network.node[19].core_layer 	interests[19] 	0
scalar geant_cost_network.node[19].core_layer 	data[19] 	0
scalar geant_cost_network.node[19].content_store 	p_hit[19] 	-nan
scalar geant_cost_network.node[19].content_store 	hits[19] 	0
scalar geant_cost_network.node[19].content_store 	misses[19] 	0
scalar geant_cost_network.node[19].content_store 	decision_yes[19] 	0
scalar geant_cost_network.node[19].content_store 	decision_no[19] 	0
scalar geant_cost_network.node[19].content_store 	decision_ratio[19] 	0
scalar geant_cost_network.node[19].content_store 	correction_factor[19] 	0.00052314387834144
scalar geant_cost_network.node[19].content_store 	xi[19] 	1.75
scalar geant_cost_network.node[20].core_layer 	interests[20] 	180808
scalar geant_cost_network.node[20].core_layer 	data[20] 	166657
scalar geant_cost_network.node[20].content_store 	p_hit[20] 	0.075439139861068
scalar geant_cost_network.node[20].content_store 	hits[20] 	13640
scalar geant_cost_network.node[20].content_store 	misses[20] 	167168
scalar geant_cost_network.node[20].content_store 	decision_yes[20] 	1037
scalar geant_cost_network.node[20].content_store 	decision_no[20] 	165620
scalar geant_cost_network.node[20].content_store 	decision_ratio[20] 	0.006222360896932
scalar geant_cost_network.node[20].content_store 	correction_factor[20] 	0.00052314387834144
scalar geant_cost_network.node[20].content_store 	xi[20] 	1.75
scalar geant_cost_network.node[21].core_layer 	interests[21] 	232176
scalar geant_cost_network.node[21].core_layer 	data[21] 	157878
scalar geant_cost_network.node[21].content_store 	p_hit[21] 	0.32000723589001
scalar geant_cost_network.node[21].content_store 	hits[21] 	74298
scalar geant_cost_network.node[21].content_store 	misses[21] 	157878
scalar geant_cost_network.node[21].content_store 	decision_yes[21] 	4551
scalar geant_cost_network.node[21].content_store 	decision_no[21] 	153327
scalar geant_cost_network.node[21].content_store 	decision_ratio[21] 	0.02882605556189
scalar geant_cost_network.node[21].content_store 	correction_factor[21] 	0.00052314387834144
scalar geant_cost_network.node[21].content_store 	xi[21] 	1.75
scalar geant_cost_network.node[22].core_layer 	interests[22] 	257097
scalar geant_cost_network.node[22].core_layer 	repo_load[22] 	257097
scalar geant_cost_network.node[22].core_layer 	data[22] 	0
scalar geant_cost_network.node[22].content_store 	p_hit[22] 	0
scalar geant_cost_network.node[22].content_store 	hits[22] 	0
scalar geant_cost_network.node[22].content_store 	misses[22] 	257097
scalar geant_cost_network.node[22].content_store 	decision_yes[22] 	0
scalar geant_cost_network.node[22].content_store 	decision_no[22] 	257097
scalar geant_cost_network.node[22].content_store 	decision_ratio[22] 	0
scalar geant_cost_network.node[23].core_layer 	interests[23] 	153992
scalar geant_cost_network.node[23].core_layer 	repo_load[23] 	153992
scalar geant_cost_network.node[23].core_layer 	data[23] 	0
scalar geant_cost_network.node[23].content_store 	p_hit[23] 	0
scalar geant_cost_network.node[23].content_store 	hits[23] 	0
scalar geant_cost_network.node[23].content_store 	misses[23] 	153992
scalar geant_cost_network.node[23].content_store 	decision_yes[23] 	0
scalar geant_cost_network.node[23].content_store 	decision_no[23] 	153992
scalar geant_cost_network.node[23].content_store 	decision_ratio[23] 	0
scalar geant_cost_network.node[24].core_layer 	interests[24] 	157878
scalar geant_cost_network.node[24].core_layer 	repo_load[24] 	157878
scalar geant_cost_network.node[24].core_layer 	data[24] 	0
scalar geant_cost_network.node[24].content_store 	p_hit[24] 	0
scalar geant_cost_network.node[24].content_store 	hits[24] 	0
scalar geant_cost_network.node[24].content_store 	misses[24] 	157878
scalar geant_cost_network.node[24].content_store 	decision_yes[24] 	0
scalar geant_cost_network.node[24].content_store 	decision_no[24] 	157878
scalar geant_cost_network.node[24].content_store 	decision_ratio[24] 	0
scalar geant_cost_network.client[5] 	hdistance[5] 	3.2990135114603
scalar geant_cost_network.client[5] 	downloads[5] 	177701
scalar geant_cost_network.client[5] 	avg_time[5] 	0.009698161276
scalar geant_cost_network.client[5] 	interests_sent[5] 	179797
scalar geant_cost_network.client[9] 	hdistance[9] 	3.283038547994
scalar geant_cost_network.client[9] 	downloads[9] 	179283
scalar geant_cost_network.client[9] 	avg_time[9] 	0.003536416372
scalar geant_cost_network.client[9] 	interests_sent[9] 	179943
scalar geant_cost_network.client[10] 	hdistance[10] 	4.2218754536217
scalar geant_cost_network.client[10] 	downloads[10] 	179114
scalar geant_cost_network.client[10] 	avg_time[10] 	0.005425144377
scalar geant_cost_network.client[10] 	interests_sent[10] 	180099
scalar geant_cost_network.client[12] 	hdistance[12] 	3.5036492684723
scalar geant_cost_network.client[12] 	downloads[12] 	179214
scalar geant_cost_network.client[12] 	avg_time[12] 	0.004172067685
scalar geant_cost_network.client[12] 	interests_sent[12] 	179684
scalar geant_cost_network.client[20] 	hdistance[20] 	3.5151666417079
scalar geant_cost_network.client[20] 	downloads[20] 	180297
scalar geant_cost_network.client[20] 	avg_time[20] 	0.006104714145
scalar geant_cost_network.client[20] 	interests_sent[20] 	180808
