version 2
run General-0-20150803-12:38:29-20488
attr C 1e4
attr D lru_repr
attr F spr
attr R lru_repr
attr a 1
attr brates 0.3_0.7_1.5_2.5_3.5
attr configname General
attr ctlg 1e6
attr datetime 20150803-12:38:29
attr experiment General
attr inifile omnetpp.ini
attr iterationvars "$net=abilene_nodelay, $rep=0, $lambda=100, $a=1, $ctlg=1e6, $brates=0.3_0.7_1.5_2.5_3.5, $F=spr, $ttl=1000, $D=lru_repr, $R=lru_repr, $proactiveprob=0.001, $C=1e4, $window=60, $variance=0.05, $mytime=1800000"
attr iterationvars2 "$net=abilene_nodelay, $rep=0, $lambda=100, $a=1, $ctlg=1e6, $brates=0.3_0.7_1.5_2.5_3.5, $F=spr, $ttl=1000, $D=lru_repr, $R=lru_repr, $proactiveprob=0.001, $C=1e4, $window=60, $variance=0.05, $mytime=1800000, $repetition=0"
attr lambda 100
attr measurement "$net=abilene_nodelay, $rep=0, $lambda=100, $a=1, $ctlg=1e6, $brates=0.3_0.7_1.5_2.5_3.5, $F=spr, $ttl=1000, $D=lru_repr, $R=lru_repr, $proactiveprob=0.001, $C=1e4, $window=60, $variance=0.05, $mytime=1800000"
attr mytime 1800000
attr net abilene_nodelay
attr network networks.${net=abilene_nodelay}_network
attr proactiveprob 0.001
attr processid 20488
attr rep 0
attr repetition 0
attr replication #0
attr resultdir results
attr runnumber 0
attr seedset 0
attr ttl 1000
attr variance 0.05
attr window 60

scalar . 	C 	1e4
scalar . 	a 	1
scalar . 	ctlg 	1e6
scalar . 	lambda 	100
scalar . 	mytime 	1800000
scalar . 	proactiveprob 	0.001
scalar . 	rep 	0
scalar . 	ttl 	1000
scalar . 	variance 	0.05
scalar . 	window 	60
scalar abilene_nodelay_network.content_distribution 	repo-0 	5
scalar abilene_nodelay_network.content_distribution 	client-0 	8
scalar abilene_nodelay_network.content_distribution 	repo-0_card 	1000000
scalar abilene_nodelay_network.content_distribution 	repo-0_price 	0
