version 2
run General-16-20150311-18:59:41-28971
attr D lce
attr F spr
attr R lru
attr a 0.9
attr configname General
attr datetime 20150311-18:59:41
attr experiment General
attr inifile omnetpp.ini
attr iterationvars "$net=abilene, $rep=0, $a=0.9, $F=spr, $ttl=1000, $D=lce, $R=lru"
attr iterationvars2 "$net=abilene, $rep=0, $a=0.9, $F=spr, $ttl=1000, $D=lce, $R=lru, $repetition=0"
attr measurement "$net=abilene, $rep=0, $a=0.9, $F=spr, $ttl=1000, $D=lce, $R=lru"
attr net abilene
attr network networks.${net=abilene}_network
attr processid 28971
attr rep 0
attr repetition 0
attr replication #0
attr resultdir results
attr runnumber 16
attr seedset 0
attr ttl 1000

scalar . 	a 	0.9
scalar . 	rep 	0
scalar . 	ttl 	1000
scalar abilene_network.content_distribution 	repo-0 	5
scalar abilene_network.content_distribution 	client-0 	8
scalar abilene_network.content_distribution 	client-1 	9
scalar abilene_network.content_distribution 	client-2 	5
scalar abilene_network.content_distribution 	client-3 	0
scalar abilene_network.content_distribution 	client-4 	1
scalar abilene_network.content_distribution 	client-5 	7
scalar abilene_network.content_distribution 	client-6 	6
scalar abilene_network.content_distribution 	client-7 	2
scalar abilene_network.content_distribution 	client-8 	4
scalar abilene_network.content_distribution 	client-9 	10
scalar abilene_network.content_distribution 	client-10 	3
scalar abilene_network.content_distribution 	repo-0_card 	10000
scalar abilene_network.content_distribution 	repo-0_price 	0
scalar abilene_network.statistics 	stabilization_time 	261
scalar abilene_network.statistics 	p_hit 	0.10130546525284
scalar abilene_network.statistics 	interests 	5341.1818181818
scalar abilene_network.statistics 	data 	3541.6363636364
scalar abilene_network.statistics 	hdistance 	2.6684912287942
scalar abilene_network.statistics 	avg_time 	0.011140584719
scalar abilene_network.statistics 	downloads 	19796
scalar abilene_network.statistics 	total_cost 	0
scalar abilene_network.statistics 	total_replicas 	10000
scalar abilene_network.statistics 	inner_hit 	0.30071731662962
scalar abilene_network.node[0].core_layer 	interests[0] 	1814
scalar abilene_network.node[0].core_layer 	data[0] 	1332
scalar abilene_network.node[0].core_layer 	repo_int[0] 	13843
scalar abilene_network.node[0].content_store 	p_hit[0] 	0.26571113561191
scalar abilene_network.node[0].content_store 	hits[0] 	482
scalar abilene_network.node[0].content_store 	misses[0] 	1332
scalar abilene_network.node[0].content_store 	decision_yes[0] 	1332
scalar abilene_network.node[0].content_store 	decision_no[0] 	0
scalar abilene_network.node[0].content_store 	decision_ratio[0] 	1
scalar abilene_network.node[1].core_layer 	interests[1] 	4487
scalar abilene_network.node[1].core_layer 	data[1] 	3888
scalar abilene_network.node[1].content_store 	p_hit[1] 	0.13349676844217
scalar abilene_network.node[1].content_store 	hits[1] 	599
scalar abilene_network.node[1].content_store 	misses[1] 	3888
scalar abilene_network.node[1].content_store 	decision_yes[1] 	3888
scalar abilene_network.node[1].content_store 	decision_no[1] 	0
scalar abilene_network.node[1].content_store 	decision_ratio[1] 	1
scalar abilene_network.node[2].core_layer 	interests[2] 	5638
scalar abilene_network.node[2].core_layer 	data[2] 	5139
scalar abilene_network.node[2].content_store 	p_hit[2] 	0.088506562610855
scalar abilene_network.node[2].content_store 	hits[2] 	499
scalar abilene_network.node[2].content_store 	misses[2] 	5139
scalar abilene_network.node[2].content_store 	decision_yes[2] 	5139
scalar abilene_network.node[2].content_store 	decision_no[2] 	0
scalar abilene_network.node[2].content_store 	decision_ratio[2] 	1
scalar abilene_network.node[3].core_layer 	interests[3] 	6948
scalar abilene_network.node[3].core_layer 	data[3] 	6434
scalar abilene_network.node[3].content_store 	p_hit[3] 	0.073978123200921
scalar abilene_network.node[3].content_store 	hits[3] 	514
scalar abilene_network.node[3].content_store 	misses[3] 	6434
scalar abilene_network.node[3].content_store 	decision_yes[3] 	6434
scalar abilene_network.node[3].content_store 	decision_no[3] 	0
scalar abilene_network.node[3].content_store 	decision_ratio[3] 	1
scalar abilene_network.node[4].core_layer 	interests[4] 	8186
scalar abilene_network.node[4].core_layer 	data[4] 	7692
scalar abilene_network.node[4].content_store 	p_hit[4] 	0.060346933789397
scalar abilene_network.node[4].content_store 	hits[4] 	494
scalar abilene_network.node[4].content_store 	misses[4] 	7692
scalar abilene_network.node[4].content_store 	decision_yes[4] 	7692
scalar abilene_network.node[4].content_store 	decision_no[4] 	0
scalar abilene_network.node[4].content_store 	decision_ratio[4] 	1
scalar abilene_network.node[5].core_layer 	interests[5] 	14772
scalar abilene_network.node[5].core_layer 	repo_load[5] 	13843
scalar abilene_network.node[5].core_layer 	data[5] 	0
scalar abilene_network.node[5].content_store 	p_hit[5] 	0.062889249932304
scalar abilene_network.node[5].content_store 	hits[5] 	929
scalar abilene_network.node[5].content_store 	misses[5] 	13843
scalar abilene_network.node[5].content_store 	decision_yes[5] 	13843
scalar abilene_network.node[5].content_store 	decision_no[5] 	0
scalar abilene_network.node[5].content_store 	decision_ratio[5] 	1
scalar abilene_network.node[6].core_layer 	interests[6] 	5734
scalar abilene_network.node[6].core_layer 	data[6] 	5212
scalar abilene_network.node[6].content_store 	p_hit[6] 	0.09103592605511
scalar abilene_network.node[6].content_store 	hits[6] 	522
scalar abilene_network.node[6].content_store 	misses[6] 	5212
scalar abilene_network.node[6].content_store 	decision_yes[6] 	5212
scalar abilene_network.node[6].content_store 	decision_no[6] 	0
scalar abilene_network.node[6].content_store 	decision_ratio[6] 	1
scalar abilene_network.node[7].core_layer 	interests[7] 	4408
scalar abilene_network.node[7].core_layer 	data[7] 	3925
scalar abilene_network.node[7].content_store 	p_hit[7] 	0.10957350272232
scalar abilene_network.node[7].content_store 	hits[7] 	483
scalar abilene_network.node[7].content_store 	misses[7] 	3925
scalar abilene_network.node[7].content_store 	decision_yes[7] 	3925
scalar abilene_network.node[7].content_store 	decision_no[7] 	0
scalar abilene_network.node[7].content_store 	decision_ratio[7] 	1
scalar abilene_network.node[8].core_layer 	interests[8] 	3091
scalar abilene_network.node[8].core_layer 	data[8] 	2599
scalar abilene_network.node[8].content_store 	p_hit[8] 	0.15917178906503
scalar abilene_network.node[8].content_store 	hits[8] 	492
scalar abilene_network.node[8].content_store 	misses[8] 	2599
scalar abilene_network.node[8].content_store 	decision_yes[8] 	2599
scalar abilene_network.node[8].content_store 	decision_no[8] 	0
scalar abilene_network.node[8].content_store 	decision_ratio[8] 	1
scalar abilene_network.node[9].core_layer 	interests[9] 	1873
scalar abilene_network.node[9].core_layer 	data[9] 	1403
scalar abilene_network.node[9].content_store 	p_hit[9] 	0.25093432995195
scalar abilene_network.node[9].content_store 	hits[9] 	470
scalar abilene_network.node[9].content_store 	misses[9] 	1403
scalar abilene_network.node[9].content_store 	decision_yes[9] 	1403
scalar abilene_network.node[9].content_store 	decision_no[9] 	0
scalar abilene_network.node[9].content_store 	decision_ratio[9] 	1
scalar abilene_network.node[10].core_layer 	interests[10] 	1802
scalar abilene_network.node[10].core_layer 	data[10] 	1334
scalar abilene_network.node[10].content_store 	p_hit[10] 	0.25971143174251
scalar abilene_network.node[10].content_store 	hits[10] 	468
scalar abilene_network.node[10].content_store 	misses[10] 	1334
scalar abilene_network.node[10].content_store 	decision_yes[10] 	1334
scalar abilene_network.node[10].content_store 	decision_no[10] 	0
scalar abilene_network.node[10].content_store 	decision_ratio[10] 	1
scalar abilene_network.client[0] 	hdistance[0] 	4.0622932745314
scalar abilene_network.client[0] 	downloads[0] 	1814
scalar abilene_network.client[0] 	avg_time[0] 	0.021642502302
scalar abilene_network.client[1] 	hdistance[1] 	3.5672707303679
scalar abilene_network.client[1] 	downloads[1] 	1821
scalar abilene_network.client[1] 	avg_time[1] 	0.014689411961
scalar abilene_network.client[2] 	hdistance[2] 	2.956
scalar abilene_network.client[2] 	downloads[2] 	1750
scalar abilene_network.client[2] 	avg_time[2] 	0.010709416705
scalar abilene_network.client[3] 	hdistance[3] 	2.281370923162
scalar abilene_network.client[3] 	downloads[3] 	1809
scalar abilene_network.client[3] 	avg_time[3] 	0.007188899499
scalar abilene_network.client[4] 	hdistance[4] 	1.5787671232877
scalar abilene_network.client[4] 	downloads[4] 	1752
scalar abilene_network.client[4] 	avg_time[4] 	0.006227122848
scalar abilene_network.client[5] 	hdistance[5] 	0.83297644539615
scalar abilene_network.client[5] 	downloads[5] 	1868
scalar abilene_network.client[5] 	avg_time[5] 	0
scalar abilene_network.client[6] 	hdistance[6] 	1.5185185185185
scalar abilene_network.client[6] 	downloads[6] 	1809
scalar abilene_network.client[6] 	avg_time[6] 	0.001739081921
scalar abilene_network.client[7] 	hdistance[7] 	2.2524861878453
scalar abilene_network.client[7] 	downloads[7] 	1810
scalar abilene_network.client[7] 	avg_time[7] 	0.006285745407
scalar abilene_network.client[8] 	hdistance[8] 	2.8098341232227
scalar abilene_network.client[8] 	downloads[8] 	1688
scalar abilene_network.client[8] 	avg_time[8] 	0.011323174928
scalar abilene_network.client[9] 	hdistance[9] 	3.4650293646556
scalar abilene_network.client[9] 	downloads[9] 	1873
scalar abilene_network.client[9] 	avg_time[9] 	0.021851209987
scalar abilene_network.client[10] 	hdistance[10] 	4.0288568257492
scalar abilene_network.client[10] 	downloads[10] 	1802
scalar abilene_network.client[10] 	avg_time[10] 	0.020889866357
