version 2
run General-650-20140510-20:29:29-5042
attr D costprobtailsmart0.01
attr F nrr
attr R lru
attr a 1
attr configname General
attr csize 1e3
attr ctlg 1e5
attr datetime 20140510-20:29:29
attr experiment General
attr inifile omnetpp.ini
attr iterationvars "$net=one_cache_scenario_3_links, $rep=12, $priceratiovalue=10, $weights=0.75_0_0.25, $a=1, $ctlg=1e5, $F=nrr, $ttl=1000, $D=costprobtailsmart0.01, $xi=0, $R=lru, $csize=1e3"
attr iterationvars2 "$net=one_cache_scenario_3_links, $rep=12, $priceratiovalue=10, $weights=0.75_0_0.25, $a=1, $ctlg=1e5, $F=nrr, $ttl=1000, $D=costprobtailsmart0.01, $xi=0, $R=lru, $csize=1e3, $repetition=0"
attr measurement "$net=one_cache_scenario_3_links, $rep=12, $priceratiovalue=10, $weights=0.75_0_0.25, $a=1, $ctlg=1e5, $F=nrr, $ttl=1000, $D=costprobtailsmart0.01, $xi=0, $R=lru, $csize=1e3"
attr net one_cache_scenario_3_links
attr network networks.${net=one_cache_scenario_3_links}_network
attr priceratiovalue 10
attr processid 5042
attr rep 12
attr repetition 0
attr replication #0
attr resultdir results
attr runnumber 650
attr seedset 12
attr ttl 1000
attr weights 0.75_0_0.25
attr xi 0

scalar . 	a 	1
scalar . 	csize 	1e3
scalar . 	ctlg 	1e5
scalar . 	priceratiovalue 	10
scalar . 	rep 	12
scalar . 	ttl 	1000
scalar . 	xi 	0
scalar one_cache_scenario_3_links_network.content_distribution 	repo-0 	4
scalar one_cache_scenario_3_links_network.content_distribution 	repo-1 	5
scalar one_cache_scenario_3_links_network.content_distribution 	repo-2 	6
scalar one_cache_scenario_3_links_network.content_distribution 	client-0 	0
scalar one_cache_scenario_3_links_network.content_distribution 	repo-0_card 	75187
scalar one_cache_scenario_3_links_network.content_distribution 	repo-1_card 	0
scalar one_cache_scenario_3_links_network.content_distribution 	repo-2_card 	24813
scalar one_cache_scenario_3_links_network.statistics 	p_hit 	0.2807488805125
scalar one_cache_scenario_3_links_network.statistics 	interests 	49193.428571429
scalar one_cache_scenario_3_links_network.statistics 	data 	23588.285714286
scalar one_cache_scenario_3_links_network.statistics 	hdistance 	0.92123234171707
scalar one_cache_scenario_3_links_network.statistics 	avg_time 	0
scalar one_cache_scenario_3_links_network.statistics 	downloads 	179236
scalar one_cache_scenario_3_links_network.statistics 	total_cost 	201940
scalar one_cache_scenario_3_links_network.statistics 	total_replicas 	100000
scalar one_cache_scenario_3_links_network.statistics 	interests_sent 	179236
scalar one_cache_scenario_3_links_network.node[0].core_layer 	interests[0] 	179236
scalar one_cache_scenario_3_links_network.node[0].core_layer 	data[0] 	82559
scalar one_cache_scenario_3_links_network.node[0].core_layer 	repo_int[0] 	82559
scalar one_cache_scenario_3_links_network.node[0].content_store 	p_hit[0] 	0.53938382914147
scalar one_cache_scenario_3_links_network.node[0].content_store 	hits[0] 	96677
scalar one_cache_scenario_3_links_network.node[0].content_store 	misses[0] 	82559
scalar one_cache_scenario_3_links_network.node[0].content_store 	decision_yes[0] 	803
scalar one_cache_scenario_3_links_network.node[0].content_store 	decision_no[0] 	81756
scalar one_cache_scenario_3_links_network.node[0].content_store 	decision_ratio[0] 	0.0097263774997275
scalar one_cache_scenario_3_links_network.node[0].content_store 	correction_factor[0] 	1.7135540456331e-316
scalar one_cache_scenario_3_links_network.node[0].content_store 	xi[0] 	0
scalar one_cache_scenario_3_links_network.node[1].core_layer 	interests[1] 	62365
scalar one_cache_scenario_3_links_network.node[1].core_layer 	data[1] 	62365
scalar one_cache_scenario_3_links_network.node[1].content_store 	p_hit[1] 	0
scalar one_cache_scenario_3_links_network.node[1].content_store 	hits[1] 	0
scalar one_cache_scenario_3_links_network.node[1].content_store 	misses[1] 	62365
scalar one_cache_scenario_3_links_network.node[1].content_store 	decision_yes[1] 	0
scalar one_cache_scenario_3_links_network.node[1].content_store 	decision_no[1] 	62365
scalar one_cache_scenario_3_links_network.node[1].content_store 	decision_ratio[1] 	0
scalar one_cache_scenario_3_links_network.node[2].core_layer 	interests[2] 	0
scalar one_cache_scenario_3_links_network.node[2].core_layer 	data[2] 	0
scalar one_cache_scenario_3_links_network.node[2].content_store 	p_hit[2] 	-nan
scalar one_cache_scenario_3_links_network.node[2].content_store 	hits[2] 	0
scalar one_cache_scenario_3_links_network.node[2].content_store 	misses[2] 	0
scalar one_cache_scenario_3_links_network.node[2].content_store 	decision_yes[2] 	0
scalar one_cache_scenario_3_links_network.node[2].content_store 	decision_no[2] 	0
scalar one_cache_scenario_3_links_network.node[2].content_store 	decision_ratio[2] 	0
scalar one_cache_scenario_3_links_network.node[3].core_layer 	interests[3] 	20194
scalar one_cache_scenario_3_links_network.node[3].core_layer 	data[3] 	20194
scalar one_cache_scenario_3_links_network.node[3].content_store 	p_hit[3] 	0
scalar one_cache_scenario_3_links_network.node[3].content_store 	hits[3] 	0
scalar one_cache_scenario_3_links_network.node[3].content_store 	misses[3] 	20194
scalar one_cache_scenario_3_links_network.node[3].content_store 	decision_yes[3] 	0
scalar one_cache_scenario_3_links_network.node[3].content_store 	decision_no[3] 	20194
scalar one_cache_scenario_3_links_network.node[3].content_store 	decision_ratio[3] 	0
scalar one_cache_scenario_3_links_network.node[4].core_layer 	interests[4] 	62365
scalar one_cache_scenario_3_links_network.node[4].core_layer 	repo_load[4] 	62365
scalar one_cache_scenario_3_links_network.node[4].core_layer 	data[4] 	0
scalar one_cache_scenario_3_links_network.node[4].content_store 	p_hit[4] 	0
scalar one_cache_scenario_3_links_network.node[4].content_store 	hits[4] 	0
scalar one_cache_scenario_3_links_network.node[4].content_store 	misses[4] 	62365
scalar one_cache_scenario_3_links_network.node[4].content_store 	decision_yes[4] 	0
scalar one_cache_scenario_3_links_network.node[4].content_store 	decision_no[4] 	62365
scalar one_cache_scenario_3_links_network.node[4].content_store 	decision_ratio[4] 	0
scalar one_cache_scenario_3_links_network.node[5].core_layer 	interests[5] 	0
scalar one_cache_scenario_3_links_network.node[5].core_layer 	data[5] 	0
scalar one_cache_scenario_3_links_network.node[5].content_store 	p_hit[5] 	-nan
scalar one_cache_scenario_3_links_network.node[5].content_store 	hits[5] 	0
scalar one_cache_scenario_3_links_network.node[5].content_store 	misses[5] 	0
scalar one_cache_scenario_3_links_network.node[5].content_store 	decision_yes[5] 	0
scalar one_cache_scenario_3_links_network.node[5].content_store 	decision_no[5] 	0
scalar one_cache_scenario_3_links_network.node[5].content_store 	decision_ratio[5] 	0
scalar one_cache_scenario_3_links_network.node[6].core_layer 	interests[6] 	20194
scalar one_cache_scenario_3_links_network.node[6].core_layer 	repo_load[6] 	20194
scalar one_cache_scenario_3_links_network.node[6].core_layer 	data[6] 	0
scalar one_cache_scenario_3_links_network.node[6].content_store 	p_hit[6] 	0
scalar one_cache_scenario_3_links_network.node[6].content_store 	hits[6] 	0
scalar one_cache_scenario_3_links_network.node[6].content_store 	misses[6] 	20194
scalar one_cache_scenario_3_links_network.node[6].content_store 	decision_yes[6] 	0
scalar one_cache_scenario_3_links_network.node[6].content_store 	decision_no[6] 	20194
scalar one_cache_scenario_3_links_network.node[6].content_store 	decision_ratio[6] 	0
scalar one_cache_scenario_3_links_network.client[0] 	hdistance[0] 	0.92123234171707
scalar one_cache_scenario_3_links_network.client[0] 	downloads[0] 	179236
scalar one_cache_scenario_3_links_network.client[0] 	avg_time[0] 	0
scalar one_cache_scenario_3_links_network.client[0] 	interests_sent[0] 	179236
