version 2
run General-12-20140423-04:39:42-8250
attr D lce
attr F nrr
attr R lru
attr a 1.2
attr configname General
attr csize 10^3
attr ctlg 10^8
attr datetime 20140423-04:39:42
attr experiment General
attr inifile omnetpp.ini
attr iterationvars "$net=simple_scenario, $rep=1, $priceratiovalue=1, $a=1.2, $ctlg=10^8, $F=nrr, $ttl=1000, $D=lce, $R=lru, $csize=10^3"
attr iterationvars2 "$net=simple_scenario, $rep=1, $priceratiovalue=1, $a=1.2, $ctlg=10^8, $F=nrr, $ttl=1000, $D=lce, $R=lru, $csize=10^3, $repetition=0"
attr measurement "$net=simple_scenario, $rep=1, $priceratiovalue=1, $a=1.2, $ctlg=10^8, $F=nrr, $ttl=1000, $D=lce, $R=lru, $csize=10^3"
attr net simple_scenario
attr network networks.${net=simple_scenario}_network
attr priceratiovalue 1
attr processid 8250
attr rep 1
attr repetition 0
attr replication #0
attr resultdir results
attr runnumber 12
attr seedset 1
attr ttl 1000

scalar . 	a 	1.2
scalar . 	priceratiovalue 	1
scalar . 	rep 	1
scalar . 	ttl 	1000
scalar simple_scenario_network.content_distribution 	repo-0 	3
scalar simple_scenario_network.content_distribution 	repo-1 	4
scalar simple_scenario_network.content_distribution 	client-0 	0
scalar simple_scenario_network.content_distribution 	repo-0_card 	50003719
scalar simple_scenario_network.content_distribution 	repo-1_card 	49996281
scalar simple_scenario_network.statistics 	p_hit 	0.49980861807529
scalar simple_scenario_network.statistics 	interests 	54341.6
scalar simple_scenario_network.statistics 	data 	18503.2
scalar simple_scenario_network.statistics 	hdistance 	0.75843787669092
scalar simple_scenario_network.statistics 	avg_time 	0.001991375694
scalar simple_scenario_network.statistics 	downloads 	179192
scalar simple_scenario_network.statistics 	total_cost 	21695
scalar simple_scenario_network.node[0].core_layer 	interests[0] 	179192
scalar simple_scenario_network.node[0].core_layer 	data[0] 	49126
scalar simple_scenario_network.node[0].core_layer 	repo_int[0] 	43390
scalar simple_scenario_network.node[0].content_store 	p_hit[0] 	0.72584713603286
scalar simple_scenario_network.node[0].content_store 	hits[0] 	130066
scalar simple_scenario_network.node[0].content_store 	misses[0] 	49126
scalar simple_scenario_network.node[1].core_layer 	interests[1] 	24859
scalar simple_scenario_network.node[1].core_layer 	data[1] 	21932
scalar simple_scenario_network.node[1].content_store 	p_hit[1] 	0.11774407659198
scalar simple_scenario_network.node[1].content_store 	hits[1] 	2927
scalar simple_scenario_network.node[1].content_store 	misses[1] 	21932
scalar simple_scenario_network.node[2].core_layer 	interests[2] 	24267
scalar simple_scenario_network.node[2].core_layer 	data[2] 	21458
scalar simple_scenario_network.node[2].content_store 	p_hit[2] 	0.11575390447933
scalar simple_scenario_network.node[2].content_store 	hits[2] 	2809
scalar simple_scenario_network.node[2].content_store 	misses[2] 	21458
scalar simple_scenario_network.node[3].core_layer 	interests[3] 	21932
scalar simple_scenario_network.node[3].core_layer 	repo_load[3] 	21932
scalar simple_scenario_network.node[3].core_layer 	data[3] 	0
scalar simple_scenario_network.node[3].content_store 	p_hit[3] 	0
scalar simple_scenario_network.node[3].content_store 	hits[3] 	0
scalar simple_scenario_network.node[3].content_store 	misses[3] 	21932
scalar simple_scenario_network.node[4].core_layer 	interests[4] 	21458
scalar simple_scenario_network.node[4].core_layer 	repo_load[4] 	21458
scalar simple_scenario_network.node[4].core_layer 	data[4] 	0
scalar simple_scenario_network.node[4].content_store 	p_hit[4] 	0
scalar simple_scenario_network.node[4].content_store 	hits[4] 	0
scalar simple_scenario_network.node[4].content_store 	misses[4] 	21458
scalar simple_scenario_network.client[0] 	hdistance[0] 	0.75843787669092
scalar simple_scenario_network.client[0] 	downloads[0] 	179192
scalar simple_scenario_network.client[0] 	avg_time[0] 	0.001991375694
