version 2
run General-5575-20140423-20:52:52-345
attr D fix0.01
attr F nrr
attr R lru
attr a 1.2
attr configname General
attr csize 2
attr ctlg 10^3
attr datetime 20140423-20:52:52
attr experiment General
attr inifile omnetpp.ini
attr iterationvars "$net=simple_scenario, $rep=16, $priceratiovalue=5, $a=1.2, $ctlg=10^3, $F=nrr, $ttl=1000, $D=fix0.01, $R=lru, $csize=2"
attr iterationvars2 "$net=simple_scenario, $rep=16, $priceratiovalue=5, $a=1.2, $ctlg=10^3, $F=nrr, $ttl=1000, $D=fix0.01, $R=lru, $csize=2, $repetition=0"
attr measurement "$net=simple_scenario, $rep=16, $priceratiovalue=5, $a=1.2, $ctlg=10^3, $F=nrr, $ttl=1000, $D=fix0.01, $R=lru, $csize=2"
attr net simple_scenario
attr network networks.${net=simple_scenario}_network
attr priceratiovalue 5
attr processid 345
attr rep 16
attr repetition 0
attr replication #0
attr resultdir results
attr runnumber 5575
attr seedset 16
attr ttl 1000

scalar . 	a 	1.2
scalar . 	csize 	2
scalar . 	priceratiovalue 	5
scalar . 	rep 	16
scalar . 	ttl 	1000
scalar simple_scenario_network.content_distribution 	repo-0 	3
scalar simple_scenario_network.content_distribution 	repo-1 	4
scalar simple_scenario_network.content_distribution 	client-0 	0
scalar simple_scenario_network.content_distribution 	repo-0_card 	495
scalar simple_scenario_network.content_distribution 	repo-1_card 	505
scalar simple_scenario_network.statistics 	p_hit 	0.14312190634918
scalar simple_scenario_network.statistics 	interests 	87841.2
scalar simple_scenario_network.statistics 	data 	51781.4
scalar simple_scenario_network.statistics 	hdistance 	2.0873438011303
scalar simple_scenario_network.statistics 	avg_time 	0.001985743785
scalar simple_scenario_network.statistics 	downloads 	180299
scalar simple_scenario_network.statistics 	total_cost 	61425
scalar simple_scenario_network.node[0].core_layer 	interests[0] 	180299
scalar simple_scenario_network.node[0].core_layer 	data[0] 	141468
scalar simple_scenario_network.node[0].core_layer 	repo_int[0] 	117439
scalar simple_scenario_network.node[0].content_store 	p_hit[0] 	0.21537002423752
scalar simple_scenario_network.node[0].content_store 	hits[0] 	38831
scalar simple_scenario_network.node[0].content_store 	misses[0] 	141468
scalar simple_scenario_network.node[1].core_layer 	interests[1] 	64530
scalar simple_scenario_network.node[1].core_layer 	data[1] 	54659
scalar simple_scenario_network.node[1].content_store 	p_hit[1] 	0.15296761196343
scalar simple_scenario_network.node[1].content_store 	hits[1] 	9871
scalar simple_scenario_network.node[1].content_store 	misses[1] 	54659
scalar simple_scenario_network.node[2].core_layer 	interests[2] 	76938
scalar simple_scenario_network.node[2].core_layer 	data[2] 	62780
scalar simple_scenario_network.node[2].content_store 	p_hit[2] 	0.18401830044971
scalar simple_scenario_network.node[2].content_store 	hits[2] 	14158
scalar simple_scenario_network.node[2].content_store 	misses[2] 	62780
scalar simple_scenario_network.node[3].core_layer 	interests[3] 	54659
scalar simple_scenario_network.node[3].core_layer 	repo_load[3] 	54659
scalar simple_scenario_network.node[3].core_layer 	data[3] 	0
scalar simple_scenario_network.node[3].content_store 	p_hit[3] 	0
scalar simple_scenario_network.node[3].content_store 	hits[3] 	0
scalar simple_scenario_network.node[3].content_store 	misses[3] 	54659
scalar simple_scenario_network.node[4].core_layer 	interests[4] 	62780
scalar simple_scenario_network.node[4].core_layer 	repo_load[4] 	62780
scalar simple_scenario_network.node[4].core_layer 	data[4] 	0
scalar simple_scenario_network.node[4].content_store 	p_hit[4] 	0
scalar simple_scenario_network.node[4].content_store 	hits[4] 	0
scalar simple_scenario_network.node[4].content_store 	misses[4] 	62780
scalar simple_scenario_network.client[0] 	hdistance[0] 	2.0873438011303
scalar simple_scenario_network.client[0] 	downloads[0] 	180299
scalar simple_scenario_network.client[0] 	avg_time[0] 	0.001985743785
