version 2
run General-232-20140502-01:29:37-9110
attr D costprob0.01
attr F nrr
attr R lru
attr a 1
attr configname General
attr csize 1e3
attr ctlg 1e5
attr datetime 20140502-01:29:37
attr experiment General
attr inifile omnetpp.ini
attr iterationvars "$net=three_caches_scenario_3_links, $rep=1, $priceratiovalue=2, $weights=0.7_0.15_0.15, $a=1, $ctlg=1e5, $F=nrr, $ttl=1000, $D=costprob0.01, $xi=1, $R=lru, $csize=1e3"
attr iterationvars2 "$net=three_caches_scenario_3_links, $rep=1, $priceratiovalue=2, $weights=0.7_0.15_0.15, $a=1, $ctlg=1e5, $F=nrr, $ttl=1000, $D=costprob0.01, $xi=1, $R=lru, $csize=1e3, $repetition=0"
attr measurement "$net=three_caches_scenario_3_links, $rep=1, $priceratiovalue=2, $weights=0.7_0.15_0.15, $a=1, $ctlg=1e5, $F=nrr, $ttl=1000, $D=costprob0.01, $xi=1, $R=lru, $csize=1e3"
attr net three_caches_scenario_3_links
attr network networks.${net=three_caches_scenario_3_links}_network
attr priceratiovalue 2
attr processid 9110
attr rep 1
attr repetition 0
attr replication #0
attr resultdir results
attr runnumber 232
attr seedset 1
attr ttl 1000
attr weights 0.7_0.15_0.15
attr xi 1

scalar . 	a 	1
scalar . 	csize 	1e3
scalar . 	ctlg 	1e5
scalar . 	priceratiovalue 	2
scalar . 	rep 	1
scalar . 	ttl 	1000
scalar . 	xi 	1
scalar three_caches_scenario_3_links_network.content_distribution 	repo-0 	4
scalar three_caches_scenario_3_links_network.content_distribution 	repo-1 	5
scalar three_caches_scenario_3_links_network.content_distribution 	repo-2 	6
scalar three_caches_scenario_3_links_network.content_distribution 	client-0 	0
scalar three_caches_scenario_3_links_network.content_distribution 	repo-0_card 	70018
scalar three_caches_scenario_3_links_network.content_distribution 	repo-1_card 	15023
scalar three_caches_scenario_3_links_network.content_distribution 	repo-2_card 	14959
scalar three_caches_scenario_3_links_network.statistics 	p_hit 	0.058176560385733
scalar three_caches_scenario_3_links_network.statistics 	interests 	70841
scalar three_caches_scenario_3_links_network.statistics 	data 	45194.285714286
scalar three_caches_scenario_3_links_network.statistics 	hdistance 	1.8633186094571
scalar three_caches_scenario_3_links_network.statistics 	avg_time 	0
scalar three_caches_scenario_3_links_network.statistics 	downloads 	179527
scalar three_caches_scenario_3_links_network.statistics 	total_cost 	26826
scalar three_caches_scenario_3_links_network.statistics 	total_replicas 	100000
scalar three_caches_scenario_3_links_network.statistics 	interests_sent 	179527
scalar three_caches_scenario_3_links_network.node[0].core_layer 	interests[0] 	179527
scalar three_caches_scenario_3_links_network.node[0].core_layer 	data[0] 	165682
scalar three_caches_scenario_3_links_network.node[0].core_layer 	repo_int[0] 	150678
scalar three_caches_scenario_3_links_network.node[0].content_store 	p_hit[0] 	0.077119319099634
scalar three_caches_scenario_3_links_network.node[0].content_store 	hits[0] 	13845
scalar three_caches_scenario_3_links_network.node[0].content_store 	misses[0] 	165682
scalar three_caches_scenario_3_links_network.node[0].content_store 	decision_yes[0] 	614
scalar three_caches_scenario_3_links_network.node[0].content_store 	decision_no[0] 	165068
scalar three_caches_scenario_3_links_network.node[1].core_layer 	interests[1] 	132522
scalar three_caches_scenario_3_links_network.node[1].core_layer 	data[1] 	132522
scalar three_caches_scenario_3_links_network.node[1].content_store 	p_hit[1] 	0
scalar three_caches_scenario_3_links_network.node[1].content_store 	hits[1] 	0
scalar three_caches_scenario_3_links_network.node[1].content_store 	misses[1] 	132522
scalar three_caches_scenario_3_links_network.node[1].content_store 	decision_yes[1] 	0
scalar three_caches_scenario_3_links_network.node[1].content_store 	decision_no[1] 	132522
scalar three_caches_scenario_3_links_network.node[2].core_layer 	interests[2] 	18131
scalar three_caches_scenario_3_links_network.node[2].core_layer 	data[2] 	9486
scalar three_caches_scenario_3_links_network.node[2].content_store 	p_hit[2] 	0.4768076774585
scalar three_caches_scenario_3_links_network.node[2].content_store 	hits[2] 	8645
scalar three_caches_scenario_3_links_network.node[2].content_store 	misses[2] 	9486
scalar three_caches_scenario_3_links_network.node[2].content_store 	decision_yes[2] 	210
scalar three_caches_scenario_3_links_network.node[2].content_store 	decision_no[2] 	9276
scalar three_caches_scenario_3_links_network.node[3].core_layer 	interests[3] 	15029
scalar three_caches_scenario_3_links_network.node[3].core_layer 	data[3] 	8670
scalar three_caches_scenario_3_links_network.node[3].content_store 	p_hit[3] 	0.42311531039989
scalar three_caches_scenario_3_links_network.node[3].content_store 	hits[3] 	6359
scalar three_caches_scenario_3_links_network.node[3].content_store 	misses[3] 	8670
scalar three_caches_scenario_3_links_network.node[3].content_store 	decision_yes[3] 	392
scalar three_caches_scenario_3_links_network.node[3].content_store 	decision_no[3] 	8278
scalar three_caches_scenario_3_links_network.node[4].core_layer 	interests[4] 	132522
scalar three_caches_scenario_3_links_network.node[4].core_layer 	repo_load[4] 	132522
scalar three_caches_scenario_3_links_network.node[4].core_layer 	data[4] 	0
scalar three_caches_scenario_3_links_network.node[4].content_store 	p_hit[4] 	0
scalar three_caches_scenario_3_links_network.node[4].content_store 	hits[4] 	0
scalar three_caches_scenario_3_links_network.node[4].content_store 	misses[4] 	132522
scalar three_caches_scenario_3_links_network.node[4].content_store 	decision_yes[4] 	0
scalar three_caches_scenario_3_links_network.node[4].content_store 	decision_no[4] 	132522
scalar three_caches_scenario_3_links_network.node[5].core_layer 	interests[5] 	9486
scalar three_caches_scenario_3_links_network.node[5].core_layer 	repo_load[5] 	9486
scalar three_caches_scenario_3_links_network.node[5].core_layer 	data[5] 	0
scalar three_caches_scenario_3_links_network.node[5].content_store 	p_hit[5] 	0
scalar three_caches_scenario_3_links_network.node[5].content_store 	hits[5] 	0
scalar three_caches_scenario_3_links_network.node[5].content_store 	misses[5] 	9486
scalar three_caches_scenario_3_links_network.node[5].content_store 	decision_yes[5] 	0
scalar three_caches_scenario_3_links_network.node[5].content_store 	decision_no[5] 	9486
scalar three_caches_scenario_3_links_network.node[6].core_layer 	interests[6] 	8670
scalar three_caches_scenario_3_links_network.node[6].core_layer 	repo_load[6] 	8670
scalar three_caches_scenario_3_links_network.node[6].core_layer 	data[6] 	0
scalar three_caches_scenario_3_links_network.node[6].content_store 	p_hit[6] 	0
scalar three_caches_scenario_3_links_network.node[6].content_store 	hits[6] 	0
scalar three_caches_scenario_3_links_network.node[6].content_store 	misses[6] 	8670
scalar three_caches_scenario_3_links_network.node[6].content_store 	decision_yes[6] 	0
scalar three_caches_scenario_3_links_network.node[6].content_store 	decision_no[6] 	8670
scalar three_caches_scenario_3_links_network.client[0] 	hdistance[0] 	1.8633186094571
scalar three_caches_scenario_3_links_network.client[0] 	downloads[0] 	179527
scalar three_caches_scenario_3_links_network.client[0] 	avg_time[0] 	0
scalar three_caches_scenario_3_links_network.client[0] 	interests_sent[0] 	179527
