version 2
run General-20-20150615-18:08:58-11247
attr D lcd
attr F spr
attr R lru
attr a 1
attr configname General
attr datetime 20150615-18:08:58
attr experiment General
attr inifile omnetpp.ini
attr iterationvars "$net=abilene, $rep=0, $a=1, $F=spr, $ttl=1000, $D=lcd, $R=lru, $window=60, $variance=0.05, $mytime=1800"
attr iterationvars2 "$net=abilene, $rep=0, $a=1, $F=spr, $ttl=1000, $D=lcd, $R=lru, $window=60, $variance=0.05, $mytime=1800, $repetition=0"
attr measurement "$net=abilene, $rep=0, $a=1, $F=spr, $ttl=1000, $D=lcd, $R=lru, $window=60, $variance=0.05, $mytime=1800"
attr mytime 1800
attr net abilene
attr network networks.${net=abilene}_network
attr processid 11247
attr rep 0
attr repetition 0
attr replication #0
attr resultdir results
attr runnumber 20
attr seedset 0
attr ttl 1000
attr variance 0.05
attr window 60

scalar . 	a 	1
scalar . 	mytime 	1800
scalar . 	rep 	0
scalar . 	ttl 	1000
scalar . 	variance 	0.05
scalar . 	window 	60
scalar abilene_network.content_distribution 	repo-0 	5
scalar abilene_network.content_distribution 	client-0 	8
scalar abilene_network.content_distribution 	client-1 	9
scalar abilene_network.content_distribution 	client-2 	5
scalar abilene_network.content_distribution 	client-3 	0
scalar abilene_network.content_distribution 	client-4 	1
scalar abilene_network.content_distribution 	client-5 	7
scalar abilene_network.content_distribution 	client-6 	6
scalar abilene_network.content_distribution 	client-7 	2
scalar abilene_network.content_distribution 	client-8 	4
scalar abilene_network.content_distribution 	client-9 	10
scalar abilene_network.content_distribution 	client-10 	3
scalar abilene_network.content_distribution 	repo-0_card 	1000
scalar abilene_network.content_distribution 	repo-0_price 	0
scalar abilene_network.statistics 	stabilization_time 	63
scalar abilene_network.statistics 	p_hit 	0.13988782272197
scalar abilene_network.statistics 	interests 	477458.54545455
scalar abilene_network.statistics 	data 	297346.09090909
scalar abilene_network.statistics 	hdistance 	2.300437350807
scalar abilene_network.statistics 	avg_time 	0.009402937708
scalar abilene_network.statistics 	downloads 	1974398
scalar abilene_network.statistics 	total_cost 	0
scalar abilene_network.statistics 	total_replicas 	1000
scalar abilene_network.statistics 	inner_hit 	0.37848194740878
scalar abilene_network.statistics 	interests_sent 	1981226
scalar abilene_network.node[0].core_layer 	interests[0] 	180299
scalar abilene_network.node[0].core_layer 	data[0] 	112288
scalar abilene_network.node[0].core_layer 	megabytes_sent[face$o[0]->client[0]] 	0
scalar abilene_network.node[0].core_layer 	megabytes_sent[face$o[1]->node[1]] 	0
scalar abilene_network.node[0].core_layer 	megabytes_sent[face$o[2]->node[10]] 	0
scalar abilene_network.node[0].content_store 	p_hit[0] 	0.37173805733809
scalar abilene_network.node[0].content_store 	hits[0] 	67024
scalar abilene_network.node[0].content_store 	misses[0] 	113275
scalar abilene_network.node[0].content_store 	decision_yes[0] 	5110
scalar abilene_network.node[0].content_store 	decision_no[0] 	107178
scalar abilene_network.node[0].content_store 	decision_ratio[0] 	0.045507979481334
scalar abilene_network.node[1].core_layer 	interests[1] 	404497
scalar abilene_network.node[1].core_layer 	data[1] 	325906
scalar abilene_network.node[1].core_layer 	megabytes_sent[face$o[0]->client[1]] 	0
scalar abilene_network.node[1].core_layer 	megabytes_sent[face$o[1]->node[0]] 	0
scalar abilene_network.node[1].core_layer 	megabytes_sent[face$o[2]->node[10]] 	0
scalar abilene_network.node[1].core_layer 	megabytes_sent[face$o[3]->node[2]] 	0
scalar abilene_network.node[1].content_store 	p_hit[1] 	0.18460952738834
scalar abilene_network.node[1].content_store 	hits[1] 	74674
scalar abilene_network.node[1].content_store 	misses[1] 	329823
scalar abilene_network.node[1].content_store 	decision_yes[1] 	10221
scalar abilene_network.node[1].content_store 	decision_no[1] 	315685
scalar abilene_network.node[1].content_store 	decision_ratio[1] 	0.031361803710272
scalar abilene_network.node[2].core_layer 	interests[2] 	506254
scalar abilene_network.node[2].core_layer 	data[2] 	430290
scalar abilene_network.node[2].core_layer 	megabytes_sent[face$o[0]->client[2]] 	0
scalar abilene_network.node[2].core_layer 	megabytes_sent[face$o[1]->node[1]] 	0
scalar abilene_network.node[2].core_layer 	megabytes_sent[face$o[2]->node[3]] 	0
scalar abilene_network.node[2].core_layer 	megabytes_sent[face$o[3]->node[8]] 	0
scalar abilene_network.node[2].content_store 	p_hit[2] 	0.14399886223121
scalar abilene_network.node[2].content_store 	hits[2] 	72900
scalar abilene_network.node[2].content_store 	misses[2] 	433354
scalar abilene_network.node[2].content_store 	decision_yes[2] 	11491
scalar abilene_network.node[2].content_store 	decision_no[2] 	418799
scalar abilene_network.node[2].content_store 	decision_ratio[2] 	0.026705245299682
scalar abilene_network.node[3].core_layer 	interests[3] 	610636
scalar abilene_network.node[3].core_layer 	data[3] 	536446
scalar abilene_network.node[3].core_layer 	megabytes_sent[face$o[0]->client[3]] 	0
scalar abilene_network.node[3].core_layer 	megabytes_sent[face$o[1]->node[2]] 	0
scalar abilene_network.node[3].core_layer 	megabytes_sent[face$o[2]->node[4]] 	0
scalar abilene_network.node[3].core_layer 	megabytes_sent[face$o[3]->node[7]] 	0
scalar abilene_network.node[3].content_store 	p_hit[3] 	0.1171974793494
scalar abilene_network.node[3].content_store 	hits[3] 	71565
scalar abilene_network.node[3].content_store 	misses[3] 	539071
scalar abilene_network.node[3].content_store 	decision_yes[3] 	12994
scalar abilene_network.node[3].content_store 	decision_no[3] 	523452
scalar abilene_network.node[3].content_store 	decision_ratio[3] 	0.024222382122339
scalar abilene_network.node[4].core_layer 	interests[4] 	717203
scalar abilene_network.node[4].core_layer 	data[4] 	646532
scalar abilene_network.node[4].core_layer 	megabytes_sent[face$o[0]->client[4]] 	0
scalar abilene_network.node[4].core_layer 	megabytes_sent[face$o[1]->node[3]] 	0
scalar abilene_network.node[4].core_layer 	megabytes_sent[face$o[2]->node[5]] 	0
scalar abilene_network.node[4].content_store 	p_hit[4] 	0.09393017039806
scalar abilene_network.node[4].content_store 	hits[4] 	67367
scalar abilene_network.node[4].content_store 	misses[4] 	649836
scalar abilene_network.node[4].content_store 	decision_yes[4] 	15376
scalar abilene_network.node[4].content_store 	decision_no[4] 	631156
scalar abilene_network.node[4].content_store 	decision_ratio[4] 	0.023782272184517
scalar abilene_network.node[5].core_layer 	interests[5] 	1270331
scalar abilene_network.node[5].core_layer 	repo_load[5] 	1227124
scalar abilene_network.node[5].core_layer 	data[5] 	0
scalar abilene_network.node[5].core_layer 	megabytes_sent[face$o[0]->client[5]] 	0
scalar abilene_network.node[5].core_layer 	megabytes_sent[face$o[1]->node[4]] 	0
scalar abilene_network.node[5].core_layer 	megabytes_sent[face$o[2]->node[6]] 	0
scalar abilene_network.node[5].content_store 	p_hit[5] 	0.034012395194638
scalar abilene_network.node[5].content_store 	hits[5] 	43207
scalar abilene_network.node[5].content_store 	misses[5] 	1227124
scalar abilene_network.node[5].content_store 	decision_yes[5] 	1227124
scalar abilene_network.node[5].content_store 	decision_no[5] 	0
scalar abilene_network.node[5].content_store 	decision_ratio[5] 	1
scalar abilene_network.node[6].core_layer 	interests[6] 	509937
scalar abilene_network.node[6].core_layer 	data[6] 	444401
scalar abilene_network.node[6].core_layer 	megabytes_sent[face$o[0]->client[6]] 	0
scalar abilene_network.node[6].core_layer 	megabytes_sent[face$o[1]->node[5]] 	0
scalar abilene_network.node[6].core_layer 	megabytes_sent[face$o[2]->node[7]] 	0
scalar abilene_network.node[6].content_store 	p_hit[6] 	0.12726081849326
scalar abilene_network.node[6].content_store 	hits[6] 	64895
scalar abilene_network.node[6].content_store 	misses[6] 	445042
scalar abilene_network.node[6].content_store 	decision_yes[6] 	14575
scalar abilene_network.node[6].content_store 	decision_no[6] 	429826
scalar abilene_network.node[6].content_store 	decision_ratio[6] 	0.032796955902439
scalar abilene_network.node[7].core_layer 	interests[7] 	400504
scalar abilene_network.node[7].core_layer 	data[7] 	329706
scalar abilene_network.node[7].core_layer 	megabytes_sent[face$o[0]->client[7]] 	0
scalar abilene_network.node[7].core_layer 	megabytes_sent[face$o[1]->node[3]] 	0
scalar abilene_network.node[7].core_layer 	megabytes_sent[face$o[2]->node[6]] 	0
scalar abilene_network.node[7].core_layer 	megabytes_sent[face$o[3]->node[8]] 	0
scalar abilene_network.node[7].content_store 	p_hit[7] 	0.1732866588099
scalar abilene_network.node[7].content_store 	hits[7] 	69402
scalar abilene_network.node[7].content_store 	misses[7] 	331102
scalar abilene_network.node[7].content_store 	decision_yes[7] 	9884
scalar abilene_network.node[7].content_store 	decision_no[7] 	319822
scalar abilene_network.node[7].content_store 	decision_ratio[7] 	0.029978223022936
scalar abilene_network.node[8].core_layer 	interests[8] 	292226
scalar abilene_network.node[8].core_layer 	data[8] 	220987
scalar abilene_network.node[8].core_layer 	megabytes_sent[face$o[0]->client[8]] 	0
scalar abilene_network.node[8].core_layer 	megabytes_sent[face$o[1]->node[2]] 	0
scalar abilene_network.node[8].core_layer 	megabytes_sent[face$o[2]->node[7]] 	0
scalar abilene_network.node[8].core_layer 	megabytes_sent[face$o[3]->node[9]] 	0
scalar abilene_network.node[8].content_store 	p_hit[8] 	0.23855509092278
scalar abilene_network.node[8].content_store 	hits[8] 	69712
scalar abilene_network.node[8].content_store 	misses[8] 	222514
scalar abilene_network.node[8].content_store 	decision_yes[8] 	7464
scalar abilene_network.node[8].content_store 	decision_no[8] 	213523
scalar abilene_network.node[8].content_store 	decision_ratio[8] 	0.033775742464489
scalar abilene_network.node[9].core_layer 	interests[9] 	180358
scalar abilene_network.node[9].core_layer 	data[9] 	112186
scalar abilene_network.node[9].core_layer 	megabytes_sent[face$o[0]->client[9]] 	0
scalar abilene_network.node[9].core_layer 	megabytes_sent[face$o[1]->node[10]] 	0
scalar abilene_network.node[9].core_layer 	megabytes_sent[face$o[2]->node[8]] 	0
scalar abilene_network.node[9].content_store 	p_hit[9] 	0.37229288415263
scalar abilene_network.node[9].content_store 	hits[9] 	67146
scalar abilene_network.node[9].content_store 	misses[9] 	113212
scalar abilene_network.node[9].content_store 	decision_yes[9] 	4713
scalar abilene_network.node[9].content_store 	decision_no[9] 	107473
scalar abilene_network.node[9].content_store 	decision_ratio[9] 	0.042010589556629
scalar abilene_network.node[10].core_layer 	interests[10] 	179799
scalar abilene_network.node[10].core_layer 	data[10] 	112065
scalar abilene_network.node[10].core_layer 	megabytes_sent[face$o[0]->client[10]] 	0
scalar abilene_network.node[10].core_layer 	megabytes_sent[face$o[1]->node[0]] 	0
scalar abilene_network.node[10].core_layer 	megabytes_sent[face$o[2]->node[1]] 	0
scalar abilene_network.node[10].core_layer 	megabytes_sent[face$o[3]->node[9]] 	0
scalar abilene_network.node[10].content_store 	p_hit[10] 	0.37155379062175
scalar abilene_network.node[10].content_store 	hits[10] 	66805
scalar abilene_network.node[10].content_store 	misses[10] 	112994
scalar abilene_network.node[10].content_store 	decision_yes[10] 	5137
scalar abilene_network.node[10].content_store 	decision_no[10] 	106928
scalar abilene_network.node[10].content_store 	decision_ratio[10] 	0.045839468165797
scalar abilene_network.client[0] 	hdistance[0] 	3.4990296243419
scalar abilene_network.client[0] 	downloads[0] 	179312
scalar abilene_network.client[0] 	avg_time[0] 	0.018486368428
scalar abilene_network.client[0] 	interests_sent[0] 	180299
scalar abilene_network.client[1] 	hdistance[1] 	3.0026422435658
scalar abilene_network.client[1] 	downloads[1] 	179393
scalar abilene_network.client[1] 	avg_time[1] 	0.012206578133
scalar abilene_network.client[1] 	interests_sent[1] 	180142
scalar abilene_network.client[2] 	hdistance[2] 	2.4730782500305
scalar abilene_network.client[2] 	downloads[2] 	179706
scalar abilene_network.client[2] 	avg_time[2] 	0.008828078641
scalar abilene_network.client[2] 	interests_sent[2] 	180345
scalar abilene_network.client[3] 	hdistance[3] 	1.9259366362843
scalar abilene_network.client[3] 	downloads[3] 	179819
scalar abilene_network.client[3] 	avg_time[3] 	0.00601526736
scalar abilene_network.client[3] 	interests_sent[3] 	180343
scalar abilene_network.client[4] 	hdistance[4] 	1.3700551160103
scalar abilene_network.client[4] 	downloads[4] 	179984
scalar abilene_network.client[4] 	avg_time[4] 	0.005299471097
scalar abilene_network.client[4] 	interests_sent[4] 	180754
scalar abilene_network.client[5] 	hdistance[5] 	0.92610760552075
scalar abilene_network.client[5] 	downloads[5] 	179396
scalar abilene_network.client[5] 	avg_time[5] 	0
scalar abilene_network.client[5] 	interests_sent[5] 	179396
scalar abilene_network.client[6] 	hdistance[6] 	1.3574019251171
scalar abilene_network.client[6] 	downloads[6] 	180041
scalar abilene_network.client[6] 	avg_time[6] 	0.001525928168
scalar abilene_network.client[6] 	interests_sent[6] 	180232
scalar abilene_network.client[7] 	hdistance[7] 	1.8878386752793
scalar abilene_network.client[7] 	downloads[7] 	179117
scalar abilene_network.client[7] 	avg_time[7] 	0.005173033904
scalar abilene_network.client[7] 	interests_sent[7] 	179517
scalar abilene_network.client[8] 	hdistance[8] 	2.420146242504
scalar abilene_network.client[8] 	downloads[8] 	179428
scalar abilene_network.client[8] 	avg_time[8] 	0.009633946136
scalar abilene_network.client[8] 	interests_sent[8] 	180041
scalar abilene_network.client[9] 	hdistance[9] 	2.940891753842
scalar abilene_network.client[9] 	downloads[9] 	179332
scalar abilene_network.client[9] 	avg_time[9] 	0.018342568543
scalar abilene_network.client[9] 	interests_sent[9] 	180358
scalar abilene_network.client[10] 	hdistance[10] 	3.5016827863812
scalar abilene_network.client[10] 	downloads[10] 	178870
scalar abilene_network.client[10] 	avg_time[10] 	0.017921074379
scalar abilene_network.client[10] 	interests_sent[10] 	179799
