version 2
run General-3-20140626-13:05:33-9982
attr D costprobprodcorr0.01
attr F spr
attr R lru
attr a 1
attr configname General
attr csize 1e3
attr ctlg 1e5
attr datetime 20140626-13:05:33
attr experiment General
attr inifile omnetpp.ini
attr iterationvars "$net=geant_cost, $rep=1, $priceratiovalue=10, $weights=0.333_0.333_0.334, $lambda=100, $a=1, $ctlg=1e5, $F=spr, $ttl=1000, $D=costprobprodcorr0.01, $xi=0.25, $R=lru, $csize=1e3, $pricebits=0, $mytime=1800"
attr iterationvars2 "$net=geant_cost, $rep=1, $priceratiovalue=10, $weights=0.333_0.333_0.334, $lambda=100, $a=1, $ctlg=1e5, $F=spr, $ttl=1000, $D=costprobprodcorr0.01, $xi=0.25, $R=lru, $csize=1e3, $pricebits=0, $mytime=1800, $repetition=0"
attr lambda 100
attr measurement "$net=geant_cost, $rep=1, $priceratiovalue=10, $weights=0.333_0.333_0.334, $lambda=100, $a=1, $ctlg=1e5, $F=spr, $ttl=1000, $D=costprobprodcorr0.01, $xi=0.25, $R=lru, $csize=1e3, $pricebits=0, $mytime=1800"
attr mytime 1800
attr net geant_cost
attr network networks.${net=geant_cost}_network
attr pricebits 0
attr priceratiovalue 10
attr processid 9982
attr rep 1
attr repetition 0
attr replication #0
attr resultdir results
attr runnumber 3
attr seedset 1
attr ttl 1000
attr weights 0.333_0.333_0.334
attr xi 0.25

scalar . 	a 	1
scalar . 	csize 	1e3
scalar . 	ctlg 	1e5
scalar . 	lambda 	100
scalar . 	mytime 	1800
scalar . 	pricebits 	0
scalar . 	priceratiovalue 	10
scalar . 	rep 	1
scalar . 	ttl 	1000
scalar . 	xi 	0.25
scalar geant_cost_network.content_distribution 	repo-0 	22
scalar geant_cost_network.content_distribution 	repo-1 	23
scalar geant_cost_network.content_distribution 	repo-2 	24
scalar geant_cost_network.content_distribution 	client-0 	20
scalar geant_cost_network.content_distribution 	client-1 	10
scalar geant_cost_network.content_distribution 	client-2 	12
scalar geant_cost_network.content_distribution 	client-3 	9
scalar geant_cost_network.content_distribution 	client-4 	5
scalar geant_cost_network.content_distribution 	repo-0_card 	33396
scalar geant_cost_network.content_distribution 	repo-1_card 	33039
scalar geant_cost_network.content_distribution 	repo-2_card 	33565
scalar geant_cost_network.statistics 	repo_popularity[0] 	0.28686251265602
scalar geant_cost_network.statistics 	repo_popularity[1] 	0.2886063426465
scalar geant_cost_network.statistics 	repo_popularity[2] 	0.42453114469748
scalar geant_cost_network.statistics 	stabilization_time 	36060
scalar geant_cost_network.node[7].face$o[4].channel 	price[7] 	0
scalar geant_cost_network.node[7].face$o[4].channel 	represented_price[7] 	0
scalar geant_cost_network.node[8].face$o[3].channel 	price[8] 	0
scalar geant_cost_network.node[8].face$o[3].channel 	represented_price[8] 	0
scalar geant_cost_network.node[21].face$o[5].channel 	price[21] 	0
scalar geant_cost_network.node[21].face$o[5].channel 	represented_price[21] 	0
scalar geant_cost_network.node[22].face$o[1].channel 	price[22] 	0
scalar geant_cost_network.node[22].face$o[1].channel 	represented_price[22] 	0
scalar geant_cost_network.node[23].face$o[1].channel 	price[23] 	1
scalar geant_cost_network.node[23].face$o[1].channel 	represented_price[23] 	1
scalar geant_cost_network.node[24].face$o[1].channel 	price[24] 	10
scalar geant_cost_network.node[24].face$o[1].channel 	represented_price[24] 	10
scalar geant_cost_network.statistics 	p_hit 	0.090987836651232
scalar geant_cost_network.statistics 	interests 	141352.52
scalar geant_cost_network.statistics 	data 	105339.24
scalar geant_cost_network.statistics 	hdistance 	3.5952583607524
scalar geant_cost_network.statistics 	avg_time 	0.00577923069
scalar geant_cost_network.statistics 	downloads 	895491
scalar geant_cost_network.statistics 	total_cost 	1730110
scalar geant_cost_network.statistics 	total_replicas 	100000
scalar geant_cost_network.statistics 	inner_hit 	0.36485012133009
scalar geant_cost_network.statistics 	interests_sent 	900331
scalar geant_cost_network.node[0].core_layer 	interests[0] 	0
scalar geant_cost_network.node[0].core_layer 	data[0] 	0
scalar geant_cost_network.node[0].core_layer 	repo_int[0] 	568771
scalar geant_cost_network.node[0].content_store 	p_hit[0] 	-nan
scalar geant_cost_network.node[0].content_store 	hits[0] 	0
scalar geant_cost_network.node[0].content_store 	misses[0] 	0
scalar geant_cost_network.node[0].content_store 	decision_yes[0] 	0
scalar geant_cost_network.node[0].content_store 	decision_no[0] 	0
scalar geant_cost_network.node[0].content_store 	decision_ratio[0] 	0
scalar geant_cost_network.node[0].content_store 	correction_factor[0] 	0.010788122829233
scalar geant_cost_network.node[0].content_store 	xi[0] 	0.25
scalar geant_cost_network.node[1].core_layer 	interests[1] 	0
scalar geant_cost_network.node[1].core_layer 	data[1] 	0
scalar geant_cost_network.node[1].content_store 	p_hit[1] 	-nan
scalar geant_cost_network.node[1].content_store 	hits[1] 	0
scalar geant_cost_network.node[1].content_store 	misses[1] 	0
scalar geant_cost_network.node[1].content_store 	decision_yes[1] 	0
scalar geant_cost_network.node[1].content_store 	decision_no[1] 	0
scalar geant_cost_network.node[1].content_store 	decision_ratio[1] 	0
scalar geant_cost_network.node[1].content_store 	correction_factor[1] 	0.010788122829233
scalar geant_cost_network.node[1].content_store 	xi[1] 	0.25
scalar geant_cost_network.node[2].core_layer 	interests[2] 	0
scalar geant_cost_network.node[2].core_layer 	data[2] 	0
scalar geant_cost_network.node[2].content_store 	p_hit[2] 	-nan
scalar geant_cost_network.node[2].content_store 	hits[2] 	0
scalar geant_cost_network.node[2].content_store 	misses[2] 	0
scalar geant_cost_network.node[2].content_store 	decision_yes[2] 	0
scalar geant_cost_network.node[2].content_store 	decision_no[2] 	0
scalar geant_cost_network.node[2].content_store 	decision_ratio[2] 	0
scalar geant_cost_network.node[2].content_store 	correction_factor[2] 	0.010788122829233
scalar geant_cost_network.node[2].content_store 	xi[2] 	0.25
scalar geant_cost_network.node[3].core_layer 	interests[3] 	221079
scalar geant_cost_network.node[3].core_layer 	data[3] 	209968
scalar geant_cost_network.node[3].content_store 	p_hit[3] 	0.050253529281388
scalar geant_cost_network.node[3].content_store 	hits[3] 	11110
scalar geant_cost_network.node[3].content_store 	misses[3] 	209969
scalar geant_cost_network.node[3].content_store 	decision_yes[3] 	1728
scalar geant_cost_network.node[3].content_store 	decision_no[3] 	208240
scalar geant_cost_network.node[3].content_store 	decision_ratio[3] 	0.0082298254972186
scalar geant_cost_network.node[3].content_store 	correction_factor[3] 	0.010788122829233
scalar geant_cost_network.node[3].content_store 	xi[3] 	0.25
scalar geant_cost_network.node[4].core_layer 	interests[4] 	306788
scalar geant_cost_network.node[4].core_layer 	data[4] 	294188
scalar geant_cost_network.node[4].content_store 	p_hit[4] 	0.040862093693365
scalar geant_cost_network.node[4].content_store 	hits[4] 	12536
scalar geant_cost_network.node[4].content_store 	misses[4] 	294252
scalar geant_cost_network.node[4].content_store 	decision_yes[4] 	2135
scalar geant_cost_network.node[4].content_store 	decision_no[4] 	292053
scalar geant_cost_network.node[4].content_store 	decision_ratio[4] 	0.0072572640624363
scalar geant_cost_network.node[4].content_store 	correction_factor[4] 	0.010788122829233
scalar geant_cost_network.node[4].content_store 	xi[4] 	0.25
scalar geant_cost_network.node[5].core_layer 	interests[5] 	179797
scalar geant_cost_network.node[5].core_layer 	data[5] 	155428
scalar geant_cost_network.node[5].content_store 	p_hit[5] 	0.13140374978448
scalar geant_cost_network.node[5].content_store 	hits[5] 	23626
scalar geant_cost_network.node[5].content_store 	misses[5] 	156171
scalar geant_cost_network.node[5].content_store 	decision_yes[5] 	917
scalar geant_cost_network.node[5].content_store 	decision_no[5] 	154511
scalar geant_cost_network.node[5].content_store 	decision_ratio[5] 	0.005899837867051
scalar geant_cost_network.node[5].content_store 	correction_factor[5] 	0.010788122829233
scalar geant_cost_network.node[5].content_store 	xi[5] 	0.25
scalar geant_cost_network.node[6].core_layer 	interests[6] 	101339
scalar geant_cost_network.node[6].core_layer 	data[6] 	94078
scalar geant_cost_network.node[6].content_store 	p_hit[6] 	0.071650598486269
scalar geant_cost_network.node[6].content_store 	hits[6] 	7261
scalar geant_cost_network.node[6].content_store 	misses[6] 	94078
scalar geant_cost_network.node[6].content_store 	decision_yes[6] 	346
scalar geant_cost_network.node[6].content_store 	decision_no[6] 	93732
scalar geant_cost_network.node[6].content_store 	decision_ratio[6] 	0.0036777992729437
scalar geant_cost_network.node[6].content_store 	correction_factor[6] 	0.010788122829233
scalar geant_cost_network.node[6].content_store 	xi[6] 	0.25
scalar geant_cost_network.node[7].core_layer 	interests[7] 	345397
scalar geant_cost_network.node[7].core_layer 	data[7] 	336348
scalar geant_cost_network.node[7].content_store 	p_hit[7] 	0.026051181683686
scalar geant_cost_network.node[7].content_store 	hits[7] 	8998
scalar geant_cost_network.node[7].content_store 	misses[7] 	336399
scalar geant_cost_network.node[7].content_store 	decision_yes[7] 	625
scalar geant_cost_network.node[7].content_store 	decision_no[7] 	335723
scalar geant_cost_network.node[7].content_store 	decision_ratio[7] 	0.0018581944890411
scalar geant_cost_network.node[7].content_store 	correction_factor[7] 	0.010788122829233
scalar geant_cost_network.node[7].content_store 	xi[7] 	0.25
scalar geant_cost_network.node[8].core_layer 	interests[8] 	313171
scalar geant_cost_network.node[8].core_layer 	data[8] 	257475
scalar geant_cost_network.node[8].content_store 	p_hit[8] 	0.17784533050634
scalar geant_cost_network.node[8].content_store 	hits[8] 	55696
scalar geant_cost_network.node[8].content_store 	misses[8] 	257475
scalar geant_cost_network.node[8].content_store 	decision_yes[8] 	1618
scalar geant_cost_network.node[8].content_store 	decision_no[8] 	255857
scalar geant_cost_network.node[8].content_store 	decision_ratio[8] 	0.0062841052529372
scalar geant_cost_network.node[8].content_store 	correction_factor[8] 	0.010788122829233
scalar geant_cost_network.node[8].content_store 	xi[8] 	0.25
scalar geant_cost_network.node[9].core_layer 	interests[9] 	404548
scalar geant_cost_network.node[9].core_layer 	data[9] 	372990
scalar geant_cost_network.node[9].content_store 	p_hit[9] 	0.069838436971633
scalar geant_cost_network.node[9].content_store 	hits[9] 	28253
scalar geant_cost_network.node[9].content_store 	misses[9] 	376295
scalar geant_cost_network.node[9].content_store 	decision_yes[9] 	2182
scalar geant_cost_network.node[9].content_store 	decision_no[9] 	370808
scalar geant_cost_network.node[9].content_store 	decision_ratio[9] 	0.0058500227888147
scalar geant_cost_network.node[9].content_store 	correction_factor[9] 	0.010788122829233
scalar geant_cost_network.node[9].content_store 	xi[9] 	0.25
scalar geant_cost_network.node[10].core_layer 	interests[10] 	180099
scalar geant_cost_network.node[10].core_layer 	data[10] 	172945
scalar geant_cost_network.node[10].content_store 	p_hit[10] 	0.031582629553745
scalar geant_cost_network.node[10].content_store 	hits[10] 	5688
scalar geant_cost_network.node[10].content_store 	misses[10] 	174411
scalar geant_cost_network.node[10].content_store 	decision_yes[10] 	889
scalar geant_cost_network.node[10].content_store 	decision_no[10] 	172056
scalar geant_cost_network.node[10].content_store 	decision_ratio[10] 	0.005140362543005
scalar geant_cost_network.node[10].content_store 	correction_factor[10] 	0.010788122829233
scalar geant_cost_network.node[10].content_store 	xi[10] 	0.25
scalar geant_cost_network.node[11].core_layer 	interests[11] 	0
scalar geant_cost_network.node[11].core_layer 	data[11] 	0
scalar geant_cost_network.node[11].content_store 	p_hit[11] 	-nan
scalar geant_cost_network.node[11].content_store 	hits[11] 	0
scalar geant_cost_network.node[11].content_store 	misses[11] 	0
scalar geant_cost_network.node[11].content_store 	decision_yes[11] 	0
scalar geant_cost_network.node[11].content_store 	decision_no[11] 	0
scalar geant_cost_network.node[11].content_store 	decision_ratio[11] 	0
scalar geant_cost_network.node[11].content_store 	correction_factor[11] 	0.010788122829233
scalar geant_cost_network.node[11].content_store 	xi[11] 	0.25
scalar geant_cost_network.node[12].core_layer 	interests[12] 	318752
scalar geant_cost_network.node[12].core_layer 	data[12] 	272740
scalar geant_cost_network.node[12].content_store 	p_hit[12] 	0.13211211223773
scalar geant_cost_network.node[12].content_store 	hits[12] 	42111
scalar geant_cost_network.node[12].content_store 	misses[12] 	276641
scalar geant_cost_network.node[12].content_store 	decision_yes[12] 	2083
scalar geant_cost_network.node[12].content_store 	decision_no[12] 	270657
scalar geant_cost_network.node[12].content_store 	decision_ratio[12] 	0.0076373102588546
scalar geant_cost_network.node[12].content_store 	correction_factor[12] 	0.010788122829233
scalar geant_cost_network.node[12].content_store 	xi[12] 	0.25
scalar geant_cost_network.node[13].core_layer 	interests[13] 	0
scalar geant_cost_network.node[13].core_layer 	data[13] 	0
scalar geant_cost_network.node[13].content_store 	p_hit[13] 	-nan
scalar geant_cost_network.node[13].content_store 	hits[13] 	0
scalar geant_cost_network.node[13].content_store 	misses[13] 	0
scalar geant_cost_network.node[13].content_store 	decision_yes[13] 	0
scalar geant_cost_network.node[13].content_store 	decision_no[13] 	0
scalar geant_cost_network.node[13].content_store 	decision_ratio[13] 	0
scalar geant_cost_network.node[13].content_store 	correction_factor[13] 	0.010788122829233
scalar geant_cost_network.node[13].content_store 	xi[13] 	0.25
scalar geant_cost_network.node[14].core_layer 	interests[14] 	54090
scalar geant_cost_network.node[14].core_layer 	data[14] 	45909
scalar geant_cost_network.node[14].content_store 	p_hit[14] 	0.15124792013311
scalar geant_cost_network.node[14].content_store 	hits[14] 	8181
scalar geant_cost_network.node[14].content_store 	misses[14] 	45909
scalar geant_cost_network.node[14].content_store 	decision_yes[14] 	643
scalar geant_cost_network.node[14].content_store 	decision_no[14] 	45266
scalar geant_cost_network.node[14].content_store 	decision_ratio[14] 	0.01400596832865
scalar geant_cost_network.node[14].content_store 	correction_factor[14] 	0.010788122829233
scalar geant_cost_network.node[14].content_store 	xi[14] 	0.25
scalar geant_cost_network.node[15].core_layer 	interests[15] 	0
scalar geant_cost_network.node[15].core_layer 	data[15] 	0
scalar geant_cost_network.node[15].content_store 	p_hit[15] 	-nan
scalar geant_cost_network.node[15].content_store 	hits[15] 	0
scalar geant_cost_network.node[15].content_store 	misses[15] 	0
scalar geant_cost_network.node[15].content_store 	decision_yes[15] 	0
scalar geant_cost_network.node[15].content_store 	decision_no[15] 	0
scalar geant_cost_network.node[15].content_store 	decision_ratio[15] 	0
scalar geant_cost_network.node[15].content_store 	correction_factor[15] 	0.010788122829233
scalar geant_cost_network.node[15].content_store 	xi[15] 	0.25
scalar geant_cost_network.node[16].core_layer 	interests[16] 	0
scalar geant_cost_network.node[16].core_layer 	data[16] 	0
scalar geant_cost_network.node[16].content_store 	p_hit[16] 	-nan
scalar geant_cost_network.node[16].content_store 	hits[16] 	0
scalar geant_cost_network.node[16].content_store 	misses[16] 	0
scalar geant_cost_network.node[16].content_store 	decision_yes[16] 	0
scalar geant_cost_network.node[16].content_store 	decision_no[16] 	0
scalar geant_cost_network.node[16].content_store 	decision_ratio[16] 	0
scalar geant_cost_network.node[16].content_store 	correction_factor[16] 	0.010788122829233
scalar geant_cost_network.node[16].content_store 	xi[16] 	0.25
scalar geant_cost_network.node[17].core_layer 	interests[17] 	0
scalar geant_cost_network.node[17].core_layer 	data[17] 	0
scalar geant_cost_network.node[17].content_store 	p_hit[17] 	-nan
scalar geant_cost_network.node[17].content_store 	hits[17] 	0
scalar geant_cost_network.node[17].content_store 	misses[17] 	0
scalar geant_cost_network.node[17].content_store 	decision_yes[17] 	0
scalar geant_cost_network.node[17].content_store 	decision_no[17] 	0
scalar geant_cost_network.node[17].content_store 	decision_ratio[17] 	0
scalar geant_cost_network.node[17].content_store 	correction_factor[17] 	0.010788122829233
scalar geant_cost_network.node[17].content_store 	xi[17] 	0.25
scalar geant_cost_network.node[18].core_layer 	interests[18] 	102688
scalar geant_cost_network.node[18].core_layer 	data[18] 	96819
scalar geant_cost_network.node[18].content_store 	p_hit[18] 	0.057153708320349
scalar geant_cost_network.node[18].content_store 	hits[18] 	5869
scalar geant_cost_network.node[18].content_store 	misses[18] 	96819
scalar geant_cost_network.node[18].content_store 	decision_yes[18] 	290
scalar geant_cost_network.node[18].content_store 	decision_no[18] 	96529
scalar geant_cost_network.node[18].content_store 	decision_ratio[18] 	0.0029952798520951
scalar geant_cost_network.node[18].content_store 	correction_factor[18] 	0.010788122829233
scalar geant_cost_network.node[18].content_store 	xi[18] 	0.25
scalar geant_cost_network.node[19].core_layer 	interests[19] 	0
scalar geant_cost_network.node[19].core_layer 	data[19] 	0
scalar geant_cost_network.node[19].content_store 	p_hit[19] 	-nan
scalar geant_cost_network.node[19].content_store 	hits[19] 	0
scalar geant_cost_network.node[19].content_store 	misses[19] 	0
scalar geant_cost_network.node[19].content_store 	decision_yes[19] 	0
scalar geant_cost_network.node[19].content_store 	decision_no[19] 	0
scalar geant_cost_network.node[19].content_store 	decision_ratio[19] 	0
scalar geant_cost_network.node[19].content_store 	correction_factor[19] 	0.010788122829233
scalar geant_cost_network.node[19].content_store 	xi[19] 	0.25
scalar geant_cost_network.node[20].core_layer 	interests[20] 	180808
scalar geant_cost_network.node[20].core_layer 	data[20] 	166989
scalar geant_cost_network.node[20].content_store 	p_hit[20] 	0.073685898854033
scalar geant_cost_network.node[20].content_store 	hits[20] 	13323
scalar geant_cost_network.node[20].content_store 	misses[20] 	167485
scalar geant_cost_network.node[20].content_store 	decision_yes[20] 	992
scalar geant_cost_network.node[20].content_store 	decision_no[20] 	165997
scalar geant_cost_network.node[20].content_store 	decision_ratio[20] 	0.0059405110516262
scalar geant_cost_network.node[20].content_store 	correction_factor[20] 	0.010788122829233
scalar geant_cost_network.node[20].content_store 	xi[20] 	0.25
scalar geant_cost_network.node[21].core_layer 	interests[21] 	256486
scalar geant_cost_network.node[21].core_layer 	data[21] 	157604
scalar geant_cost_network.node[21].content_store 	p_hit[21] 	0.38552591564452
scalar geant_cost_network.node[21].content_store 	hits[21] 	98882
scalar geant_cost_network.node[21].content_store 	misses[21] 	157604
scalar geant_cost_network.node[21].content_store 	decision_yes[21] 	3049
scalar geant_cost_network.node[21].content_store 	decision_no[21] 	154555
scalar geant_cost_network.node[21].content_store 	decision_ratio[21] 	0.019345955686404
scalar geant_cost_network.node[21].content_store 	correction_factor[21] 	0.010788122829233
scalar geant_cost_network.node[21].content_store 	xi[21] 	0.25
scalar geant_cost_network.node[22].core_layer 	interests[22] 	257097
scalar geant_cost_network.node[22].core_layer 	repo_load[22] 	257097
scalar geant_cost_network.node[22].core_layer 	data[22] 	0
scalar geant_cost_network.node[22].content_store 	p_hit[22] 	0
scalar geant_cost_network.node[22].content_store 	hits[22] 	0
scalar geant_cost_network.node[22].content_store 	misses[22] 	257097
scalar geant_cost_network.node[22].content_store 	decision_yes[22] 	0
scalar geant_cost_network.node[22].content_store 	decision_no[22] 	257097
scalar geant_cost_network.node[22].content_store 	decision_ratio[22] 	0
scalar geant_cost_network.node[23].core_layer 	interests[23] 	154070
scalar geant_cost_network.node[23].core_layer 	repo_load[23] 	154070
scalar geant_cost_network.node[23].core_layer 	data[23] 	0
scalar geant_cost_network.node[23].content_store 	p_hit[23] 	0
scalar geant_cost_network.node[23].content_store 	hits[23] 	0
scalar geant_cost_network.node[23].content_store 	misses[23] 	154070
scalar geant_cost_network.node[23].content_store 	decision_yes[23] 	0
scalar geant_cost_network.node[23].content_store 	decision_no[23] 	154070
scalar geant_cost_network.node[23].content_store 	decision_ratio[23] 	0
scalar geant_cost_network.node[24].core_layer 	interests[24] 	157604
scalar geant_cost_network.node[24].core_layer 	repo_load[24] 	157604
scalar geant_cost_network.node[24].core_layer 	data[24] 	0
scalar geant_cost_network.node[24].content_store 	p_hit[24] 	0
scalar geant_cost_network.node[24].content_store 	hits[24] 	0
scalar geant_cost_network.node[24].content_store 	misses[24] 	157604
scalar geant_cost_network.node[24].content_store 	decision_yes[24] 	0
scalar geant_cost_network.node[24].content_store 	decision_no[24] 	157604
scalar geant_cost_network.node[24].content_store 	decision_ratio[24] 	0
scalar geant_cost_network.client[5] 	hdistance[5] 	3.1258670568655
scalar geant_cost_network.client[5] 	downloads[5] 	179054
scalar geant_cost_network.client[5] 	avg_time[5] 	0.008785864574
scalar geant_cost_network.client[5] 	interests_sent[5] 	179797
scalar geant_cost_network.client[9] 	hdistance[9] 	3.4180628199032
scalar geant_cost_network.client[9] 	downloads[9] 	178765
scalar geant_cost_network.client[9] 	avg_time[9] 	0.003897575968
scalar geant_cost_network.client[9] 	interests_sent[9] 	179943
scalar geant_cost_network.client[10] 	hdistance[10] 	4.323176568719
scalar geant_cost_network.client[10] 	downloads[10] 	178633
scalar geant_cost_network.client[10] 	avg_time[10] 	0.005718464725
scalar geant_cost_network.client[10] 	interests_sent[10] 	180099
scalar geant_cost_network.client[12] 	hdistance[12] 	3.6154134518008
scalar geant_cost_network.client[12] 	downloads[12] 	178727
scalar geant_cost_network.client[12] 	avg_time[12] 	0.004500950506
scalar geant_cost_network.client[12] 	interests_sent[12] 	179684
scalar geant_cost_network.client[20] 	hdistance[20] 	3.4937719064732
scalar geant_cost_network.client[20] 	downloads[20] 	180312
scalar geant_cost_network.client[20] 	avg_time[20] 	0.005993297677
scalar geant_cost_network.client[20] 	interests_sent[20] 	180808
