version 2
run General-3757-20140423-20:06:59-30821
attr D lce
attr F nrr
attr R lru
attr a 0.8
attr configname General
attr csize 2
attr ctlg 10^3
attr datetime 20140423-20:06:59
attr experiment General
attr inifile omnetpp.ini
attr iterationvars "$net=simple_scenario, $rep=11, $priceratiovalue=5, $a=0.8, $ctlg=10^3, $F=nrr, $ttl=1000, $D=lce, $R=lru, $csize=2"
attr iterationvars2 "$net=simple_scenario, $rep=11, $priceratiovalue=5, $a=0.8, $ctlg=10^3, $F=nrr, $ttl=1000, $D=lce, $R=lru, $csize=2, $repetition=0"
attr measurement "$net=simple_scenario, $rep=11, $priceratiovalue=5, $a=0.8, $ctlg=10^3, $F=nrr, $ttl=1000, $D=lce, $R=lru, $csize=2"
attr net simple_scenario
attr network networks.${net=simple_scenario}_network
attr priceratiovalue 5
attr processid 30821
attr rep 11
attr repetition 0
attr replication #0
attr resultdir results
attr runnumber 3757
attr seedset 11
attr ttl 1000

scalar . 	a 	0.8
scalar . 	csize 	2
scalar . 	priceratiovalue 	5
scalar . 	rep 	11
scalar . 	ttl 	1000
scalar simple_scenario_network.content_distribution 	repo-0 	3
scalar simple_scenario_network.content_distribution 	repo-1 	4
scalar simple_scenario_network.content_distribution 	client-0 	0
scalar simple_scenario_network.content_distribution 	repo-0_card 	503
scalar simple_scenario_network.content_distribution 	repo-1_card 	497
scalar simple_scenario_network.statistics 	p_hit 	0.011549401579054
scalar simple_scenario_network.statistics 	interests 	105962.2
scalar simple_scenario_network.statistics 	data 	70009
scalar simple_scenario_network.statistics 	hdistance 	2.9131871432863
scalar simple_scenario_network.statistics 	avg_time 	0.001998241538
scalar simple_scenario_network.statistics 	downloads 	179766
scalar simple_scenario_network.statistics 	total_cost 	93875
scalar simple_scenario_network.node[0].core_layer 	interests[0] 	179766
scalar simple_scenario_network.node[0].core_layer 	data[0] 	176398
scalar simple_scenario_network.node[0].core_layer 	repo_int[0] 	173647
scalar simple_scenario_network.node[0].content_store 	p_hit[0] 	0.018735467218495
scalar simple_scenario_network.node[0].content_store 	hits[0] 	3368
scalar simple_scenario_network.node[0].content_store 	misses[0] 	176398
scalar simple_scenario_network.node[1].core_layer 	interests[1] 	76988
scalar simple_scenario_network.node[1].core_layer 	data[1] 	76245
scalar simple_scenario_network.node[1].content_store 	p_hit[1] 	0.0096508546786512
scalar simple_scenario_network.node[1].content_store 	hits[1] 	743
scalar simple_scenario_network.node[1].content_store 	misses[1] 	76245
scalar simple_scenario_network.node[2].core_layer 	interests[2] 	99410
scalar simple_scenario_network.node[2].core_layer 	data[2] 	97402
scalar simple_scenario_network.node[2].content_store 	p_hit[2] 	0.020199175133286
scalar simple_scenario_network.node[2].content_store 	hits[2] 	2008
scalar simple_scenario_network.node[2].content_store 	misses[2] 	97402
scalar simple_scenario_network.node[3].core_layer 	interests[3] 	76245
scalar simple_scenario_network.node[3].core_layer 	repo_load[3] 	76245
scalar simple_scenario_network.node[3].core_layer 	data[3] 	0
scalar simple_scenario_network.node[3].content_store 	p_hit[3] 	0
scalar simple_scenario_network.node[3].content_store 	hits[3] 	0
scalar simple_scenario_network.node[3].content_store 	misses[3] 	76245
scalar simple_scenario_network.node[4].core_layer 	interests[4] 	97402
scalar simple_scenario_network.node[4].core_layer 	repo_load[4] 	97402
scalar simple_scenario_network.node[4].core_layer 	data[4] 	0
scalar simple_scenario_network.node[4].content_store 	p_hit[4] 	0
scalar simple_scenario_network.node[4].content_store 	hits[4] 	0
scalar simple_scenario_network.node[4].content_store 	misses[4] 	97402
scalar simple_scenario_network.client[0] 	hdistance[0] 	2.9131871432863
scalar simple_scenario_network.client[0] 	downloads[0] 	179766
scalar simple_scenario_network.client[0] 	avg_time[0] 	0.001998241538
