version 2
run General-2348-20140422-20:28:58-6524
attr D prob_cache
attr F nrr
attr R lru
attr a 1.2
attr configname General
attr csize 10
attr ctlg 10^3
attr datetime 20140422-20:28:58
attr experiment General
attr inifile omnetpp.ini
attr iterationvars "$net=simple_scenario, $rep=20, $priceratiovalue=6, $a=1.2, $ctlg=10^3, $F=nrr, $ttl=1000, $D=prob_cache, $R=lru, $csize=10"
attr iterationvars2 "$net=simple_scenario, $rep=20, $priceratiovalue=6, $a=1.2, $ctlg=10^3, $F=nrr, $ttl=1000, $D=prob_cache, $R=lru, $csize=10, $repetition=0"
attr measurement "$net=simple_scenario, $rep=20, $priceratiovalue=6, $a=1.2, $ctlg=10^3, $F=nrr, $ttl=1000, $D=prob_cache, $R=lru, $csize=10"
attr net simple_scenario
attr network networks.${net=simple_scenario}_network
attr priceratiovalue 6
attr processid 6524
attr rep 20
attr repetition 0
attr replication #0
attr resultdir results
attr runnumber 2348
attr seedset 20
attr ttl 1000

scalar . 	a 	1.2
scalar . 	csize 	10
scalar . 	priceratiovalue 	6
scalar . 	rep 	20
scalar . 	ttl 	1000
scalar simple_scenario_network.content_distribution 	repo-0 	3
scalar simple_scenario_network.content_distribution 	repo-1 	4
scalar simple_scenario_network.content_distribution 	client-0 	0
scalar simple_scenario_network.content_distribution 	repo-0_card 	484
scalar simple_scenario_network.content_distribution 	repo-1_card 	516
scalar simple_scenario_network.statistics 	p_hit 	0.3087183312804
scalar simple_scenario_network.statistics 	interests 	69169.2
scalar simple_scenario_network.statistics 	data 	33134.2
scalar simple_scenario_network.statistics 	hdistance 	1.3269062128831
scalar simple_scenario_network.statistics 	avg_time 	0.00198570163
scalar simple_scenario_network.statistics 	downloads 	180174
scalar simple_scenario_network.statistics 	total_cost 	35081
scalar simple_scenario_network.node[0].core_layer 	interests[0] 	180175
scalar simple_scenario_network.node[0].core_layer 	data[0] 	92265
scalar simple_scenario_network.node[0].core_layer 	repo_int[0] 	73406
scalar simple_scenario_network.node[0].content_store 	p_hit[0] 	0.48791452754267
scalar simple_scenario_network.node[0].content_store 	hits[0] 	87910
scalar simple_scenario_network.node[0].content_store 	misses[0] 	92265
scalar simple_scenario_network.node[1].core_layer 	interests[1] 	49097
scalar simple_scenario_network.node[1].core_layer 	data[1] 	38972
scalar simple_scenario_network.node[1].content_store 	p_hit[1] 	0.20622441289692
scalar simple_scenario_network.node[1].content_store 	hits[1] 	10125
scalar simple_scenario_network.node[1].content_store 	misses[1] 	38972
scalar simple_scenario_network.node[2].core_layer 	interests[2] 	43168
scalar simple_scenario_network.node[2].core_layer 	data[2] 	34434
scalar simple_scenario_network.node[2].content_store 	p_hit[2] 	0.20232579688658
scalar simple_scenario_network.node[2].content_store 	hits[2] 	8734
scalar simple_scenario_network.node[2].content_store 	misses[2] 	34434
scalar simple_scenario_network.node[3].core_layer 	interests[3] 	38972
scalar simple_scenario_network.node[3].core_layer 	repo_load[3] 	38972
scalar simple_scenario_network.node[3].core_layer 	data[3] 	0
scalar simple_scenario_network.node[3].content_store 	p_hit[3] 	0
scalar simple_scenario_network.node[3].content_store 	hits[3] 	0
scalar simple_scenario_network.node[3].content_store 	misses[3] 	38972
scalar simple_scenario_network.node[4].core_layer 	interests[4] 	34434
scalar simple_scenario_network.node[4].core_layer 	repo_load[4] 	34434
scalar simple_scenario_network.node[4].core_layer 	data[4] 	0
scalar simple_scenario_network.node[4].content_store 	p_hit[4] 	0
scalar simple_scenario_network.node[4].content_store 	hits[4] 	0
scalar simple_scenario_network.node[4].content_store 	misses[4] 	34434
scalar simple_scenario_network.client[0] 	hdistance[0] 	1.3269062128831
scalar simple_scenario_network.client[0] 	downloads[0] 	180174
scalar simple_scenario_network.client[0] 	avg_time[0] 	0.00198570163
