version 2
run General-788-20140422-19:55:28-27536
attr D prob_cache
attr F nrr
attr R lru
attr a 1.2
attr configname General
attr csize 10
attr ctlg 10^3
attr datetime 20140422-19:55:28
attr experiment General
attr inifile omnetpp.ini
attr iterationvars "$net=simple_scenario, $rep=7, $priceratiovalue=6, $a=1.2, $ctlg=10^3, $F=nrr, $ttl=1000, $D=prob_cache, $R=lru, $csize=10"
attr iterationvars2 "$net=simple_scenario, $rep=7, $priceratiovalue=6, $a=1.2, $ctlg=10^3, $F=nrr, $ttl=1000, $D=prob_cache, $R=lru, $csize=10, $repetition=0"
attr measurement "$net=simple_scenario, $rep=7, $priceratiovalue=6, $a=1.2, $ctlg=10^3, $F=nrr, $ttl=1000, $D=prob_cache, $R=lru, $csize=10"
attr net simple_scenario
attr network networks.${net=simple_scenario}_network
attr priceratiovalue 6
attr processid 27536
attr rep 7
attr repetition 0
attr replication #0
attr resultdir results
attr runnumber 788
attr seedset 7
attr ttl 1000

scalar . 	a 	1.2
scalar . 	csize 	10
scalar . 	priceratiovalue 	6
scalar . 	rep 	7
scalar . 	ttl 	1000
scalar simple_scenario_network.content_distribution 	repo-0 	3
scalar simple_scenario_network.content_distribution 	repo-1 	4
scalar simple_scenario_network.content_distribution 	client-0 	0
scalar simple_scenario_network.content_distribution 	repo-0_card 	505
scalar simple_scenario_network.content_distribution 	repo-1_card 	495
scalar simple_scenario_network.statistics 	p_hit 	0.30974168417519
scalar simple_scenario_network.statistics 	interests 	69109.2
scalar simple_scenario_network.statistics 	data 	33084.6
scalar simple_scenario_network.statistics 	hdistance 	1.3241840298018
scalar simple_scenario_network.statistics 	avg_time 	0.001985656286
scalar simple_scenario_network.statistics 	downloads 	180123
scalar simple_scenario_network.statistics 	total_cost 	37031
scalar simple_scenario_network.node[0].core_layer 	interests[0] 	180123
scalar simple_scenario_network.node[0].core_layer 	data[0] 	92330
scalar simple_scenario_network.node[0].core_layer 	repo_int[0] 	73093
scalar simple_scenario_network.node[0].content_store 	p_hit[0] 	0.48740582823959
scalar simple_scenario_network.node[0].content_store 	hits[0] 	87793
scalar simple_scenario_network.node[0].content_store 	misses[0] 	92330
scalar simple_scenario_network.node[1].core_layer 	interests[1] 	44079
scalar simple_scenario_network.node[1].core_layer 	data[1] 	35867
scalar simple_scenario_network.node[1].content_store 	p_hit[1] 	0.18630186710225
scalar simple_scenario_network.node[1].content_store 	hits[1] 	8212
scalar simple_scenario_network.node[1].content_store 	misses[1] 	35867
scalar simple_scenario_network.node[2].core_layer 	interests[2] 	48251
scalar simple_scenario_network.node[2].core_layer 	data[2] 	37226
scalar simple_scenario_network.node[2].content_store 	p_hit[2] 	0.22849267372697
scalar simple_scenario_network.node[2].content_store 	hits[2] 	11025
scalar simple_scenario_network.node[2].content_store 	misses[2] 	37226
scalar simple_scenario_network.node[3].core_layer 	interests[3] 	35867
scalar simple_scenario_network.node[3].core_layer 	repo_load[3] 	35867
scalar simple_scenario_network.node[3].core_layer 	data[3] 	0
scalar simple_scenario_network.node[3].content_store 	p_hit[3] 	0
scalar simple_scenario_network.node[3].content_store 	hits[3] 	0
scalar simple_scenario_network.node[3].content_store 	misses[3] 	35867
scalar simple_scenario_network.node[4].core_layer 	interests[4] 	37226
scalar simple_scenario_network.node[4].core_layer 	repo_load[4] 	37226
scalar simple_scenario_network.node[4].core_layer 	data[4] 	0
scalar simple_scenario_network.node[4].content_store 	p_hit[4] 	0
scalar simple_scenario_network.node[4].content_store 	hits[4] 	0
scalar simple_scenario_network.node[4].content_store 	misses[4] 	37226
scalar simple_scenario_network.client[0] 	hdistance[0] 	1.3241840298018
scalar simple_scenario_network.client[0] 	downloads[0] 	180123
scalar simple_scenario_network.client[0] 	avg_time[0] 	0.001985656286
