version 2
run General-656-20140422-19:52:37-27395
attr D prob_cache
attr F nrr
attr R lru
attr a 1.2
attr configname General
attr csize 10
attr ctlg 10^3
attr datetime 20140422-19:52:37
attr experiment General
attr inifile omnetpp.ini
attr iterationvars "$net=simple_scenario, $rep=6, $priceratiovalue=5, $a=1.2, $ctlg=10^3, $F=nrr, $ttl=1000, $D=prob_cache, $R=lru, $csize=10"
attr iterationvars2 "$net=simple_scenario, $rep=6, $priceratiovalue=5, $a=1.2, $ctlg=10^3, $F=nrr, $ttl=1000, $D=prob_cache, $R=lru, $csize=10, $repetition=0"
attr measurement "$net=simple_scenario, $rep=6, $priceratiovalue=5, $a=1.2, $ctlg=10^3, $F=nrr, $ttl=1000, $D=prob_cache, $R=lru, $csize=10"
attr net simple_scenario
attr network networks.${net=simple_scenario}_network
attr priceratiovalue 5
attr processid 27395
attr rep 6
attr repetition 0
attr replication #0
attr resultdir results
attr runnumber 656
attr seedset 6
attr ttl 1000

scalar . 	a 	1.2
scalar . 	csize 	10
scalar . 	priceratiovalue 	5
scalar . 	rep 	6
scalar . 	ttl 	1000
scalar simple_scenario_network.content_distribution 	repo-0 	3
scalar simple_scenario_network.content_distribution 	repo-1 	4
scalar simple_scenario_network.content_distribution 	client-0 	0
scalar simple_scenario_network.content_distribution 	repo-0_card 	495
scalar simple_scenario_network.content_distribution 	repo-1_card 	505
scalar simple_scenario_network.statistics 	p_hit 	0.30954289132417
scalar simple_scenario_network.statistics 	interests 	68876.4
scalar simple_scenario_network.statistics 	data 	32984.2
scalar simple_scenario_network.statistics 	hdistance 	1.3249731139357
scalar simple_scenario_network.statistics 	avg_time 	0.001985239007
scalar simple_scenario_network.statistics 	downloads 	179461
scalar simple_scenario_network.statistics 	total_cost 	37460
scalar simple_scenario_network.node[0].core_layer 	interests[0] 	179461
scalar simple_scenario_network.node[0].core_layer 	data[0] 	92061
scalar simple_scenario_network.node[0].core_layer 	repo_int[0] 	72860
scalar simple_scenario_network.node[0].content_store 	p_hit[0] 	0.48701389159762
scalar simple_scenario_network.node[0].content_store 	hits[0] 	87400
scalar simple_scenario_network.node[0].content_store 	misses[0] 	92061
scalar simple_scenario_network.node[1].core_layer 	interests[1] 	44533
scalar simple_scenario_network.node[1].core_layer 	data[1] 	34883
scalar simple_scenario_network.node[1].content_store 	p_hit[1] 	0.21669323872185
scalar simple_scenario_network.node[1].content_store 	hits[1] 	9650
scalar simple_scenario_network.node[1].content_store 	misses[1] 	34883
scalar simple_scenario_network.node[2].core_layer 	interests[2] 	47528
scalar simple_scenario_network.node[2].core_layer 	data[2] 	37977
scalar simple_scenario_network.node[2].content_store 	p_hit[2] 	0.20095522639286
scalar simple_scenario_network.node[2].content_store 	hits[2] 	9551
scalar simple_scenario_network.node[2].content_store 	misses[2] 	37977
scalar simple_scenario_network.node[3].core_layer 	interests[3] 	34883
scalar simple_scenario_network.node[3].core_layer 	repo_load[3] 	34883
scalar simple_scenario_network.node[3].core_layer 	data[3] 	0
scalar simple_scenario_network.node[3].content_store 	p_hit[3] 	0
scalar simple_scenario_network.node[3].content_store 	hits[3] 	0
scalar simple_scenario_network.node[3].content_store 	misses[3] 	34883
scalar simple_scenario_network.node[4].core_layer 	interests[4] 	37977
scalar simple_scenario_network.node[4].core_layer 	repo_load[4] 	37977
scalar simple_scenario_network.node[4].core_layer 	data[4] 	0
scalar simple_scenario_network.node[4].content_store 	p_hit[4] 	0
scalar simple_scenario_network.node[4].content_store 	hits[4] 	0
scalar simple_scenario_network.node[4].content_store 	misses[4] 	37977
scalar simple_scenario_network.client[0] 	hdistance[0] 	1.3249731139357
scalar simple_scenario_network.client[0] 	downloads[0] 	179461
scalar simple_scenario_network.client[0] 	avg_time[0] 	0.001985239007
