version 2
run General-3-20150722-12:17:08-21296
attr C 116667
attr D lce
attr F spr
attr R lru
attr a 1
attr brates 1
attr configname General
attr ctlg 1e6
attr datetime 20150722-12:17:08
attr experiment General
attr inifile omnetpp.ini
attr iterationvars "$net=barabasi_100nodes, $rep=2, $lambda=100, $a=1, $ctlg=1e6, $brates=1, $F=spr, $ttl=1000, $D=lce, $R=lru, $C=116667, $window=60, $variance=0.05, $mytime=1800"
attr iterationvars2 "$net=barabasi_100nodes, $rep=2, $lambda=100, $a=1, $ctlg=1e6, $brates=1, $F=spr, $ttl=1000, $D=lce, $R=lru, $C=116667, $window=60, $variance=0.05, $mytime=1800, $repetition=0"
attr lambda 100
attr measurement "$net=barabasi_100nodes, $rep=2, $lambda=100, $a=1, $ctlg=1e6, $brates=1, $F=spr, $ttl=1000, $D=lce, $R=lru, $C=116667, $window=60, $variance=0.05, $mytime=1800"
attr mytime 1800
attr net barabasi_100nodes
attr network networks.${net=barabasi_100nodes}_network
attr processid 21296
attr rep 2
attr repetition 0
attr replication #0
attr resultdir results
attr runnumber 3
attr seedset 2
attr ttl 1000
attr variance 0.05
attr window 60

scalar . 	C 	116667
scalar . 	a 	1
scalar . 	brates 	1
scalar . 	ctlg 	1e6
scalar . 	lambda 	100
scalar . 	mytime 	1800
scalar . 	rep 	2
scalar . 	ttl 	1000
scalar . 	variance 	0.05
scalar . 	window 	60
scalar barabasi_100nodes_network.content_distribution 	repo-0 	47
scalar barabasi_100nodes_network.content_distribution 	repo-1 	68
scalar barabasi_100nodes_network.content_distribution 	repo-2 	25
scalar barabasi_100nodes_network.content_distribution 	repo-3 	67
scalar barabasi_100nodes_network.content_distribution 	repo-4 	83
scalar barabasi_100nodes_network.content_distribution 	repo-5 	23
scalar barabasi_100nodes_network.content_distribution 	repo-6 	92
scalar barabasi_100nodes_network.content_distribution 	repo-7 	57
scalar barabasi_100nodes_network.content_distribution 	repo-8 	14
scalar barabasi_100nodes_network.content_distribution 	repo-9 	72
scalar barabasi_100nodes_network.content_distribution 	repo-10 	89
scalar barabasi_100nodes_network.content_distribution 	repo-11 	42
scalar barabasi_100nodes_network.content_distribution 	repo-12 	90
scalar barabasi_100nodes_network.content_distribution 	repo-13 	8
scalar barabasi_100nodes_network.content_distribution 	repo-14 	39
scalar barabasi_100nodes_network.content_distribution 	repo-15 	48
scalar barabasi_100nodes_network.content_distribution 	repo-16 	7
scalar barabasi_100nodes_network.content_distribution 	repo-17 	44
scalar barabasi_100nodes_network.content_distribution 	repo-18 	0
scalar barabasi_100nodes_network.content_distribution 	repo-19 	75
scalar barabasi_100nodes_network.content_distribution 	repo-20 	55
scalar barabasi_100nodes_network.content_distribution 	repo-21 	6
scalar barabasi_100nodes_network.content_distribution 	repo-22 	19
scalar barabasi_100nodes_network.content_distribution 	repo-23 	60
scalar barabasi_100nodes_network.content_distribution 	repo-24 	63
scalar barabasi_100nodes_network.content_distribution 	repo-25 	69
scalar barabasi_100nodes_network.content_distribution 	repo-26 	56
scalar barabasi_100nodes_network.content_distribution 	repo-27 	24
scalar barabasi_100nodes_network.content_distribution 	repo-28 	53
scalar barabasi_100nodes_network.content_distribution 	repo-29 	61
scalar barabasi_100nodes_network.content_distribution 	repo-30 	64
scalar barabasi_100nodes_network.content_distribution 	repo-31 	34
scalar barabasi_100nodes_network.content_distribution 	repo-32 	73
scalar barabasi_100nodes_network.content_distribution 	repo-33 	78
scalar barabasi_100nodes_network.content_distribution 	repo-34 	38
scalar barabasi_100nodes_network.content_distribution 	repo-35 	4
scalar barabasi_100nodes_network.content_distribution 	repo-36 	9
scalar barabasi_100nodes_network.content_distribution 	repo-37 	87
scalar barabasi_100nodes_network.content_distribution 	repo-38 	99
scalar barabasi_100nodes_network.content_distribution 	repo-39 	1
scalar barabasi_100nodes_network.content_distribution 	repo-40 	16
scalar barabasi_100nodes_network.content_distribution 	repo-41 	31
scalar barabasi_100nodes_network.content_distribution 	repo-42 	93
scalar barabasi_100nodes_network.content_distribution 	repo-43 	71
scalar barabasi_100nodes_network.content_distribution 	repo-44 	10
scalar barabasi_100nodes_network.content_distribution 	repo-45 	35
scalar barabasi_100nodes_network.content_distribution 	repo-46 	96
scalar barabasi_100nodes_network.content_distribution 	repo-47 	21
scalar barabasi_100nodes_network.content_distribution 	repo-48 	97
scalar barabasi_100nodes_network.content_distribution 	repo-49 	91
scalar barabasi_100nodes_network.content_distribution 	repo-50 	27
scalar barabasi_100nodes_network.content_distribution 	repo-51 	33
scalar barabasi_100nodes_network.content_distribution 	repo-52 	30
scalar barabasi_100nodes_network.content_distribution 	repo-53 	81
scalar barabasi_100nodes_network.content_distribution 	repo-54 	2
scalar barabasi_100nodes_network.content_distribution 	repo-55 	50
scalar barabasi_100nodes_network.content_distribution 	repo-56 	18
scalar barabasi_100nodes_network.content_distribution 	repo-57 	58
scalar barabasi_100nodes_network.content_distribution 	repo-58 	12
scalar barabasi_100nodes_network.content_distribution 	repo-59 	76
scalar barabasi_100nodes_network.content_distribution 	repo-60 	20
scalar barabasi_100nodes_network.content_distribution 	repo-61 	15
scalar barabasi_100nodes_network.content_distribution 	repo-62 	59
scalar barabasi_100nodes_network.content_distribution 	repo-63 	43
scalar barabasi_100nodes_network.content_distribution 	repo-64 	54
scalar barabasi_100nodes_network.content_distribution 	repo-65 	77
scalar barabasi_100nodes_network.content_distribution 	repo-66 	3
scalar barabasi_100nodes_network.content_distribution 	repo-67 	29
scalar barabasi_100nodes_network.content_distribution 	repo-68 	79
scalar barabasi_100nodes_network.content_distribution 	repo-69 	70
scalar barabasi_100nodes_network.content_distribution 	repo-70 	52
scalar barabasi_100nodes_network.content_distribution 	repo-71 	41
scalar barabasi_100nodes_network.content_distribution 	repo-72 	26
scalar barabasi_100nodes_network.content_distribution 	repo-73 	62
scalar barabasi_100nodes_network.content_distribution 	repo-74 	86
scalar barabasi_100nodes_network.content_distribution 	repo-75 	98
scalar barabasi_100nodes_network.content_distribution 	repo-76 	17
scalar barabasi_100nodes_network.content_distribution 	repo-77 	5
scalar barabasi_100nodes_network.content_distribution 	repo-78 	49
scalar barabasi_100nodes_network.content_distribution 	repo-79 	37
scalar barabasi_100nodes_network.content_distribution 	repo-80 	85
scalar barabasi_100nodes_network.content_distribution 	repo-81 	51
scalar barabasi_100nodes_network.content_distribution 	repo-82 	36
scalar barabasi_100nodes_network.content_distribution 	repo-83 	82
scalar barabasi_100nodes_network.content_distribution 	repo-84 	28
scalar barabasi_100nodes_network.content_distribution 	repo-85 	32
scalar barabasi_100nodes_network.content_distribution 	repo-86 	95
scalar barabasi_100nodes_network.content_distribution 	repo-87 	45
scalar barabasi_100nodes_network.content_distribution 	repo-88 	40
scalar barabasi_100nodes_network.content_distribution 	repo-89 	13
scalar barabasi_100nodes_network.content_distribution 	repo-90 	80
scalar barabasi_100nodes_network.content_distribution 	repo-91 	46
scalar barabasi_100nodes_network.content_distribution 	repo-92 	11
scalar barabasi_100nodes_network.content_distribution 	repo-93 	94
scalar barabasi_100nodes_network.content_distribution 	repo-94 	22
scalar barabasi_100nodes_network.content_distribution 	repo-95 	66
scalar barabasi_100nodes_network.content_distribution 	repo-96 	88
scalar barabasi_100nodes_network.content_distribution 	repo-97 	84
scalar barabasi_100nodes_network.content_distribution 	repo-98 	74
scalar barabasi_100nodes_network.content_distribution 	repo-99 	65
scalar barabasi_100nodes_network.content_distribution 	client-0 	85
scalar barabasi_100nodes_network.content_distribution 	client-1 	89
scalar barabasi_100nodes_network.content_distribution 	client-2 	52
scalar barabasi_100nodes_network.content_distribution 	client-3 	21
scalar barabasi_100nodes_network.content_distribution 	client-4 	37
scalar barabasi_100nodes_network.content_distribution 	client-5 	25
scalar barabasi_100nodes_network.content_distribution 	client-6 	68
scalar barabasi_100nodes_network.content_distribution 	client-7 	29
scalar barabasi_100nodes_network.content_distribution 	client-8 	22
scalar barabasi_100nodes_network.content_distribution 	client-9 	32
scalar barabasi_100nodes_network.content_distribution 	client-10 	63
scalar barabasi_100nodes_network.content_distribution 	client-11 	86
scalar barabasi_100nodes_network.content_distribution 	client-12 	98
scalar barabasi_100nodes_network.content_distribution 	client-13 	10
scalar barabasi_100nodes_network.content_distribution 	client-14 	77
scalar barabasi_100nodes_network.content_distribution 	client-15 	35
scalar barabasi_100nodes_network.content_distribution 	client-16 	33
scalar barabasi_100nodes_network.content_distribution 	client-17 	38
scalar barabasi_100nodes_network.content_distribution 	client-18 	80
scalar barabasi_100nodes_network.content_distribution 	client-19 	23
scalar barabasi_100nodes_network.content_distribution 	client-20 	0
scalar barabasi_100nodes_network.content_distribution 	client-21 	82
scalar barabasi_100nodes_network.content_distribution 	client-22 	73
scalar barabasi_100nodes_network.content_distribution 	client-23 	6
scalar barabasi_100nodes_network.content_distribution 	client-24 	17
scalar barabasi_100nodes_network.content_distribution 	client-25 	2
scalar barabasi_100nodes_network.content_distribution 	client-26 	14
scalar barabasi_100nodes_network.content_distribution 	client-27 	46
scalar barabasi_100nodes_network.content_distribution 	client-28 	66
scalar barabasi_100nodes_network.content_distribution 	client-29 	31
scalar barabasi_100nodes_network.content_distribution 	client-30 	8
scalar barabasi_100nodes_network.content_distribution 	client-31 	92
scalar barabasi_100nodes_network.content_distribution 	client-32 	41
scalar barabasi_100nodes_network.content_distribution 	client-33 	26
scalar barabasi_100nodes_network.content_distribution 	client-34 	18
scalar barabasi_100nodes_network.content_distribution 	client-35 	84
scalar barabasi_100nodes_network.content_distribution 	client-36 	55
scalar barabasi_100nodes_network.content_distribution 	client-37 	28
scalar barabasi_100nodes_network.content_distribution 	client-38 	79
scalar barabasi_100nodes_network.content_distribution 	client-39 	45
scalar barabasi_100nodes_network.content_distribution 	client-40 	97
scalar barabasi_100nodes_network.content_distribution 	client-41 	64
scalar barabasi_100nodes_network.content_distribution 	client-42 	1
scalar barabasi_100nodes_network.content_distribution 	client-43 	24
scalar barabasi_100nodes_network.content_distribution 	client-44 	58
scalar barabasi_100nodes_network.content_distribution 	client-45 	36
scalar barabasi_100nodes_network.content_distribution 	client-46 	42
scalar barabasi_100nodes_network.content_distribution 	client-47 	47
scalar barabasi_100nodes_network.content_distribution 	client-48 	43
scalar barabasi_100nodes_network.content_distribution 	client-49 	72
scalar barabasi_100nodes_network.content_distribution 	client-50 	87
scalar barabasi_100nodes_network.content_distribution 	client-51 	51
scalar barabasi_100nodes_network.content_distribution 	client-52 	27
scalar barabasi_100nodes_network.content_distribution 	client-53 	78
scalar barabasi_100nodes_network.content_distribution 	client-54 	61
scalar barabasi_100nodes_network.content_distribution 	client-55 	30
scalar barabasi_100nodes_network.content_distribution 	client-56 	76
scalar barabasi_100nodes_network.content_distribution 	client-57 	57
scalar barabasi_100nodes_network.content_distribution 	client-58 	59
scalar barabasi_100nodes_network.content_distribution 	client-59 	88
scalar barabasi_100nodes_network.content_distribution 	client-60 	50
scalar barabasi_100nodes_network.content_distribution 	client-61 	81
scalar barabasi_100nodes_network.content_distribution 	client-62 	4
scalar barabasi_100nodes_network.content_distribution 	client-63 	93
scalar barabasi_100nodes_network.content_distribution 	client-64 	75
scalar barabasi_100nodes_network.content_distribution 	client-65 	95
scalar barabasi_100nodes_network.content_distribution 	client-66 	3
scalar barabasi_100nodes_network.content_distribution 	client-67 	69
scalar barabasi_100nodes_network.content_distribution 	client-68 	62
scalar barabasi_100nodes_network.content_distribution 	client-69 	60
scalar barabasi_100nodes_network.content_distribution 	client-70 	44
scalar barabasi_100nodes_network.content_distribution 	client-71 	13
scalar barabasi_100nodes_network.content_distribution 	client-72 	96
scalar barabasi_100nodes_network.content_distribution 	client-73 	54
scalar barabasi_100nodes_network.content_distribution 	client-74 	65
scalar barabasi_100nodes_network.content_distribution 	client-75 	48
scalar barabasi_100nodes_network.content_distribution 	client-76 	94
scalar barabasi_100nodes_network.content_distribution 	client-77 	91
scalar barabasi_100nodes_network.content_distribution 	client-78 	74
scalar barabasi_100nodes_network.content_distribution 	client-79 	49
scalar barabasi_100nodes_network.content_distribution 	client-80 	40
scalar barabasi_100nodes_network.content_distribution 	client-81 	53
scalar barabasi_100nodes_network.content_distribution 	client-82 	71
scalar barabasi_100nodes_network.content_distribution 	client-83 	39
scalar barabasi_100nodes_network.content_distribution 	client-84 	56
scalar barabasi_100nodes_network.content_distribution 	client-85 	67
scalar barabasi_100nodes_network.content_distribution 	client-86 	16
scalar barabasi_100nodes_network.content_distribution 	client-87 	70
scalar barabasi_100nodes_network.content_distribution 	client-88 	7
scalar barabasi_100nodes_network.content_distribution 	client-89 	99
scalar barabasi_100nodes_network.content_distribution 	client-90 	90
scalar barabasi_100nodes_network.content_distribution 	client-91 	5
scalar barabasi_100nodes_network.content_distribution 	client-92 	83
scalar barabasi_100nodes_network.content_distribution 	client-93 	20
scalar barabasi_100nodes_network.content_distribution 	client-94 	11
scalar barabasi_100nodes_network.content_distribution 	client-95 	9
scalar barabasi_100nodes_network.content_distribution 	client-96 	19
scalar barabasi_100nodes_network.content_distribution 	client-97 	12
scalar barabasi_100nodes_network.content_distribution 	client-98 	15
scalar barabasi_100nodes_network.content_distribution 	client-99 	34
scalar barabasi_100nodes_network.content_distribution 	repo-0_card 	250135
scalar barabasi_100nodes_network.content_distribution 	repo-0_price 	0
scalar barabasi_100nodes_network.content_distribution 	repo-1_card 	249891
scalar barabasi_100nodes_network.content_distribution 	repo-1_price 	0
scalar barabasi_100nodes_network.content_distribution 	repo-2_card 	249908
scalar barabasi_100nodes_network.content_distribution 	repo-2_price 	0
scalar barabasi_100nodes_network.content_distribution 	repo-3_card 	250066
scalar barabasi_100nodes_network.content_distribution 	repo-3_price 	0
scalar barabasi_100nodes_network.content_distribution 	repo-4_card 	0
scalar barabasi_100nodes_network.content_distribution 	repo-4_price 	0
scalar barabasi_100nodes_network.content_distribution 	repo-5_card 	0
scalar barabasi_100nodes_network.content_distribution 	repo-5_price 	0
scalar barabasi_100nodes_network.content_distribution 	repo-6_card 	0
scalar barabasi_100nodes_network.content_distribution 	repo-6_price 	0
scalar barabasi_100nodes_network.content_distribution 	repo-7_card 	0
scalar barabasi_100nodes_network.content_distribution 	repo-7_price 	0
scalar barabasi_100nodes_network.content_distribution 	repo-8_card 	0
scalar barabasi_100nodes_network.content_distribution 	repo-8_price 	0
scalar barabasi_100nodes_network.content_distribution 	repo-9_card 	0
scalar barabasi_100nodes_network.content_distribution 	repo-9_price 	0
scalar barabasi_100nodes_network.content_distribution 	repo-10_card 	0
scalar barabasi_100nodes_network.content_distribution 	repo-10_price 	0
scalar barabasi_100nodes_network.content_distribution 	repo-11_card 	0
scalar barabasi_100nodes_network.content_distribution 	repo-11_price 	0
scalar barabasi_100nodes_network.content_distribution 	repo-12_card 	0
scalar barabasi_100nodes_network.content_distribution 	repo-12_price 	0
scalar barabasi_100nodes_network.content_distribution 	repo-13_card 	0
scalar barabasi_100nodes_network.content_distribution 	repo-13_price 	0
scalar barabasi_100nodes_network.content_distribution 	repo-14_card 	0
scalar barabasi_100nodes_network.content_distribution 	repo-14_price 	0
scalar barabasi_100nodes_network.content_distribution 	repo-15_card 	0
scalar barabasi_100nodes_network.content_distribution 	repo-15_price 	0
scalar barabasi_100nodes_network.content_distribution 	repo-16_card 	0
scalar barabasi_100nodes_network.content_distribution 	repo-16_price 	0
scalar barabasi_100nodes_network.content_distribution 	repo-17_card 	0
scalar barabasi_100nodes_network.content_distribution 	repo-17_price 	0
scalar barabasi_100nodes_network.content_distribution 	repo-18_card 	0
scalar barabasi_100nodes_network.content_distribution 	repo-18_price 	0
scalar barabasi_100nodes_network.content_distribution 	repo-19_card 	0
scalar barabasi_100nodes_network.content_distribution 	repo-19_price 	0
scalar barabasi_100nodes_network.content_distribution 	repo-20_card 	0
scalar barabasi_100nodes_network.content_distribution 	repo-20_price 	0
scalar barabasi_100nodes_network.content_distribution 	repo-21_card 	0
scalar barabasi_100nodes_network.content_distribution 	repo-21_price 	0
scalar barabasi_100nodes_network.content_distribution 	repo-22_card 	0
scalar barabasi_100nodes_network.content_distribution 	repo-22_price 	0
scalar barabasi_100nodes_network.content_distribution 	repo-23_card 	0
scalar barabasi_100nodes_network.content_distribution 	repo-23_price 	0
scalar barabasi_100nodes_network.content_distribution 	repo-24_card 	0
scalar barabasi_100nodes_network.content_distribution 	repo-24_price 	0
scalar barabasi_100nodes_network.content_distribution 	repo-25_card 	0
scalar barabasi_100nodes_network.content_distribution 	repo-25_price 	0
scalar barabasi_100nodes_network.content_distribution 	repo-26_card 	0
scalar barabasi_100nodes_network.content_distribution 	repo-26_price 	0
scalar barabasi_100nodes_network.content_distribution 	repo-27_card 	0
scalar barabasi_100nodes_network.content_distribution 	repo-27_price 	0
scalar barabasi_100nodes_network.content_distribution 	repo-28_card 	0
scalar barabasi_100nodes_network.content_distribution 	repo-28_price 	0
scalar barabasi_100nodes_network.content_distribution 	repo-29_card 	0
scalar barabasi_100nodes_network.content_distribution 	repo-29_price 	0
scalar barabasi_100nodes_network.content_distribution 	repo-30_card 	0
scalar barabasi_100nodes_network.content_distribution 	repo-30_price 	0
scalar barabasi_100nodes_network.content_distribution 	repo-31_card 	0
scalar barabasi_100nodes_network.content_distribution 	repo-31_price 	0
scalar barabasi_100nodes_network.content_distribution 	repo-32_card 	0
scalar barabasi_100nodes_network.content_distribution 	repo-32_price 	0
scalar barabasi_100nodes_network.content_distribution 	repo-33_card 	0
scalar barabasi_100nodes_network.content_distribution 	repo-33_price 	0
scalar barabasi_100nodes_network.content_distribution 	repo-34_card 	0
scalar barabasi_100nodes_network.content_distribution 	repo-34_price 	0
scalar barabasi_100nodes_network.content_distribution 	repo-35_card 	0
scalar barabasi_100nodes_network.content_distribution 	repo-35_price 	0
scalar barabasi_100nodes_network.content_distribution 	repo-36_card 	0
scalar barabasi_100nodes_network.content_distribution 	repo-36_price 	0
scalar barabasi_100nodes_network.content_distribution 	repo-37_card 	0
scalar barabasi_100nodes_network.content_distribution 	repo-37_price 	0
scalar barabasi_100nodes_network.content_distribution 	repo-38_card 	0
scalar barabasi_100nodes_network.content_distribution 	repo-38_price 	0
scalar barabasi_100nodes_network.content_distribution 	repo-39_card 	0
scalar barabasi_100nodes_network.content_distribution 	repo-39_price 	0
scalar barabasi_100nodes_network.content_distribution 	repo-40_card 	0
scalar barabasi_100nodes_network.content_distribution 	repo-40_price 	0
scalar barabasi_100nodes_network.content_distribution 	repo-41_card 	0
scalar barabasi_100nodes_network.content_distribution 	repo-41_price 	0
scalar barabasi_100nodes_network.content_distribution 	repo-42_card 	0
scalar barabasi_100nodes_network.content_distribution 	repo-42_price 	0
scalar barabasi_100nodes_network.content_distribution 	repo-43_card 	0
scalar barabasi_100nodes_network.content_distribution 	repo-43_price 	0
scalar barabasi_100nodes_network.content_distribution 	repo-44_card 	0
scalar barabasi_100nodes_network.content_distribution 	repo-44_price 	0
scalar barabasi_100nodes_network.content_distribution 	repo-45_card 	0
scalar barabasi_100nodes_network.content_distribution 	repo-45_price 	0
scalar barabasi_100nodes_network.content_distribution 	repo-46_card 	0
scalar barabasi_100nodes_network.content_distribution 	repo-46_price 	0
scalar barabasi_100nodes_network.content_distribution 	repo-47_card 	0
scalar barabasi_100nodes_network.content_distribution 	repo-47_price 	0
scalar barabasi_100nodes_network.content_distribution 	repo-48_card 	0
scalar barabasi_100nodes_network.content_distribution 	repo-48_price 	0
scalar barabasi_100nodes_network.content_distribution 	repo-49_card 	0
scalar barabasi_100nodes_network.content_distribution 	repo-49_price 	0
scalar barabasi_100nodes_network.content_distribution 	repo-50_card 	0
scalar barabasi_100nodes_network.content_distribution 	repo-50_price 	0
scalar barabasi_100nodes_network.content_distribution 	repo-51_card 	0
scalar barabasi_100nodes_network.content_distribution 	repo-51_price 	0
scalar barabasi_100nodes_network.content_distribution 	repo-52_card 	0
scalar barabasi_100nodes_network.content_distribution 	repo-52_price 	0
scalar barabasi_100nodes_network.content_distribution 	repo-53_card 	0
scalar barabasi_100nodes_network.content_distribution 	repo-53_price 	0
scalar barabasi_100nodes_network.content_distribution 	repo-54_card 	0
scalar barabasi_100nodes_network.content_distribution 	repo-54_price 	0
scalar barabasi_100nodes_network.content_distribution 	repo-55_card 	0
scalar barabasi_100nodes_network.content_distribution 	repo-55_price 	0
scalar barabasi_100nodes_network.content_distribution 	repo-56_card 	0
scalar barabasi_100nodes_network.content_distribution 	repo-56_price 	0
scalar barabasi_100nodes_network.content_distribution 	repo-57_card 	0
scalar barabasi_100nodes_network.content_distribution 	repo-57_price 	0
scalar barabasi_100nodes_network.content_distribution 	repo-58_card 	0
scalar barabasi_100nodes_network.content_distribution 	repo-58_price 	0
scalar barabasi_100nodes_network.content_distribution 	repo-59_card 	0
scalar barabasi_100nodes_network.content_distribution 	repo-59_price 	0
scalar barabasi_100nodes_network.content_distribution 	repo-60_card 	0
scalar barabasi_100nodes_network.content_distribution 	repo-60_price 	0
scalar barabasi_100nodes_network.content_distribution 	repo-61_card 	0
scalar barabasi_100nodes_network.content_distribution 	repo-61_price 	0
scalar barabasi_100nodes_network.content_distribution 	repo-62_card 	0
scalar barabasi_100nodes_network.content_distribution 	repo-62_price 	0
scalar barabasi_100nodes_network.content_distribution 	repo-63_card 	0
scalar barabasi_100nodes_network.content_distribution 	repo-63_price 	0
scalar barabasi_100nodes_network.content_distribution 	repo-64_card 	0
scalar barabasi_100nodes_network.content_distribution 	repo-64_price 	0
scalar barabasi_100nodes_network.content_distribution 	repo-65_card 	0
scalar barabasi_100nodes_network.content_distribution 	repo-65_price 	0
scalar barabasi_100nodes_network.content_distribution 	repo-66_card 	0
scalar barabasi_100nodes_network.content_distribution 	repo-66_price 	0
scalar barabasi_100nodes_network.content_distribution 	repo-67_card 	0
scalar barabasi_100nodes_network.content_distribution 	repo-67_price 	0
scalar barabasi_100nodes_network.content_distribution 	repo-68_card 	0
scalar barabasi_100nodes_network.content_distribution 	repo-68_price 	0
scalar barabasi_100nodes_network.content_distribution 	repo-69_card 	0
scalar barabasi_100nodes_network.content_distribution 	repo-69_price 	0
scalar barabasi_100nodes_network.content_distribution 	repo-70_card 	0
scalar barabasi_100nodes_network.content_distribution 	repo-70_price 	0
scalar barabasi_100nodes_network.content_distribution 	repo-71_card 	0
scalar barabasi_100nodes_network.content_distribution 	repo-71_price 	0
scalar barabasi_100nodes_network.content_distribution 	repo-72_card 	0
scalar barabasi_100nodes_network.content_distribution 	repo-72_price 	0
scalar barabasi_100nodes_network.content_distribution 	repo-73_card 	0
scalar barabasi_100nodes_network.content_distribution 	repo-73_price 	0
scalar barabasi_100nodes_network.content_distribution 	repo-74_card 	0
scalar barabasi_100nodes_network.content_distribution 	repo-74_price 	0
scalar barabasi_100nodes_network.content_distribution 	repo-75_card 	0
scalar barabasi_100nodes_network.content_distribution 	repo-75_price 	0
scalar barabasi_100nodes_network.content_distribution 	repo-76_card 	0
scalar barabasi_100nodes_network.content_distribution 	repo-76_price 	0
scalar barabasi_100nodes_network.content_distribution 	repo-77_card 	0
scalar barabasi_100nodes_network.content_distribution 	repo-77_price 	0
scalar barabasi_100nodes_network.content_distribution 	repo-78_card 	0
scalar barabasi_100nodes_network.content_distribution 	repo-78_price 	0
scalar barabasi_100nodes_network.content_distribution 	repo-79_card 	0
scalar barabasi_100nodes_network.content_distribution 	repo-79_price 	0
scalar barabasi_100nodes_network.content_distribution 	repo-80_card 	0
scalar barabasi_100nodes_network.content_distribution 	repo-80_price 	0
scalar barabasi_100nodes_network.content_distribution 	repo-81_card 	0
scalar barabasi_100nodes_network.content_distribution 	repo-81_price 	0
scalar barabasi_100nodes_network.content_distribution 	repo-82_card 	0
scalar barabasi_100nodes_network.content_distribution 	repo-82_price 	0
scalar barabasi_100nodes_network.content_distribution 	repo-83_card 	0
scalar barabasi_100nodes_network.content_distribution 	repo-83_price 	0
scalar barabasi_100nodes_network.content_distribution 	repo-84_card 	0
scalar barabasi_100nodes_network.content_distribution 	repo-84_price 	0
scalar barabasi_100nodes_network.content_distribution 	repo-85_card 	0
scalar barabasi_100nodes_network.content_distribution 	repo-85_price 	0
scalar barabasi_100nodes_network.content_distribution 	repo-86_card 	0
scalar barabasi_100nodes_network.content_distribution 	repo-86_price 	0
scalar barabasi_100nodes_network.content_distribution 	repo-87_card 	0
scalar barabasi_100nodes_network.content_distribution 	repo-87_price 	0
scalar barabasi_100nodes_network.content_distribution 	repo-88_card 	0
scalar barabasi_100nodes_network.content_distribution 	repo-88_price 	0
scalar barabasi_100nodes_network.content_distribution 	repo-89_card 	0
scalar barabasi_100nodes_network.content_distribution 	repo-89_price 	0
scalar barabasi_100nodes_network.content_distribution 	repo-90_card 	0
scalar barabasi_100nodes_network.content_distribution 	repo-90_price 	0
scalar barabasi_100nodes_network.content_distribution 	repo-91_card 	0
scalar barabasi_100nodes_network.content_distribution 	repo-91_price 	0
scalar barabasi_100nodes_network.content_distribution 	repo-92_card 	0
scalar barabasi_100nodes_network.content_distribution 	repo-92_price 	0
scalar barabasi_100nodes_network.content_distribution 	repo-93_card 	0
scalar barabasi_100nodes_network.content_distribution 	repo-93_price 	0
scalar barabasi_100nodes_network.content_distribution 	repo-94_card 	0
scalar barabasi_100nodes_network.content_distribution 	repo-94_price 	0
scalar barabasi_100nodes_network.content_distribution 	repo-95_card 	0
scalar barabasi_100nodes_network.content_distribution 	repo-95_price 	0
scalar barabasi_100nodes_network.content_distribution 	repo-96_card 	0
scalar barabasi_100nodes_network.content_distribution 	repo-96_price 	0
scalar barabasi_100nodes_network.content_distribution 	repo-97_card 	0
scalar barabasi_100nodes_network.content_distribution 	repo-97_price 	0
scalar barabasi_100nodes_network.content_distribution 	repo-98_card 	0
scalar barabasi_100nodes_network.content_distribution 	repo-98_price 	0
scalar barabasi_100nodes_network.content_distribution 	repo-99_card 	0
scalar barabasi_100nodes_network.content_distribution 	repo-99_price 	0
scalar barabasi_100nodes_network.statistics 	p_hit 	0.25874499559966
scalar barabasi_100nodes_network.statistics 	interests 	8215.27
scalar barabasi_100nodes_network.statistics 	data 	5003.49
scalar barabasi_100nodes_network.statistics 	hdistance 	1.8947094410857
scalar barabasi_100nodes_network.statistics 	avg_time 	0
scalar barabasi_100nodes_network.statistics 	downloads 	321174
scalar barabasi_100nodes_network.statistics 	total_cost 	0
scalar barabasi_100nodes_network.statistics 	total_replicas 	1000000
scalar barabasi_100nodes_network.statistics 	"representations_downloaded 1:" 	0
scalar barabasi_100nodes_network.statistics 	"slots_per_representation 100:" 	0
scalar barabasi_100nodes_network.statistics 	inner_hit 	0.66184062221724
scalar barabasi_100nodes_network.statistics 	execution_time 	23
scalar barabasi_100nodes_network.node[0].core_layer 	interests[0] 	45788
scalar barabasi_100nodes_network.node[0].core_layer 	data[0] 	30698
scalar barabasi_100nodes_network.node[0].core_layer 	slots_sent[face$o[1]->client[0]] 	323500
scalar barabasi_100nodes_network.node[0].core_layer 	slots_sent[face$o[2]->node[1]] 	203100
scalar barabasi_100nodes_network.node[0].core_layer 	slots_sent[face$o[3]->node[2]] 	0
scalar barabasi_100nodes_network.node[0].core_layer 	slots_sent[face$o[4]->node[5]] 	679100
scalar barabasi_100nodes_network.node[0].core_layer 	slots_sent[face$o[5]->node[10]] 	363900
scalar barabasi_100nodes_network.node[0].core_layer 	slots_sent[face$o[6]->node[11]] 	193600
scalar barabasi_100nodes_network.node[0].core_layer 	slots_sent[face$o[7]->node[15]] 	531600
scalar barabasi_100nodes_network.node[0].core_layer 	slots_sent[face$o[8]->node[21]] 	519400
scalar barabasi_100nodes_network.node[0].core_layer 	slots_sent[face$o[9]->node[22]] 	198500
scalar barabasi_100nodes_network.node[0].core_layer 	slots_sent[face$o[10]->node[28]] 	194300
scalar barabasi_100nodes_network.node[0].core_layer 	slots_sent[face$o[11]->node[37]] 	198600
scalar barabasi_100nodes_network.node[0].core_layer 	slots_sent[face$o[12]->node[44]] 	195200
scalar barabasi_100nodes_network.node[0].core_layer 	slots_sent[face$o[13]->node[58]] 	368300
scalar barabasi_100nodes_network.node[0].core_layer 	slots_sent[face$o[14]->node[73]] 	272600
scalar barabasi_100nodes_network.node[0].core_layer 	slots_sent[face$o[15]->node[74]] 	146400
scalar barabasi_100nodes_network.node[0].core_layer 	slots_sent[face$o[16]->node[93]] 	190700
scalar barabasi_100nodes_network.node[0].content_store 	p_hit[0] 	0.32956233074168
scalar barabasi_100nodes_network.node[0].content_store 	hits[0] 	15090
scalar barabasi_100nodes_network.node[0].content_store 	misses[0] 	30698
scalar barabasi_100nodes_network.node[0].content_store 	decision_yes[0] 	30698
scalar barabasi_100nodes_network.node[0].content_store 	decision_no[0] 	0
scalar barabasi_100nodes_network.node[0].content_store 	decision_ratio[0] 	1
scalar barabasi_100nodes_network.node[1].core_layer 	interests[1] 	3244
scalar barabasi_100nodes_network.node[1].core_layer 	data[1] 	2031
scalar barabasi_100nodes_network.node[1].core_layer 	slots_sent[face$o[1]->client[1]] 	324400
scalar barabasi_100nodes_network.node[1].core_layer 	slots_sent[face$o[2]->node[0]] 	0
scalar barabasi_100nodes_network.node[1].content_store 	p_hit[1] 	0.37392108508015
scalar barabasi_100nodes_network.node[1].content_store 	hits[1] 	1213
scalar barabasi_100nodes_network.node[1].content_store 	misses[1] 	2031
scalar barabasi_100nodes_network.node[1].content_store 	decision_yes[1] 	2031
scalar barabasi_100nodes_network.node[1].content_store 	decision_no[1] 	0
scalar barabasi_100nodes_network.node[1].content_store 	decision_ratio[1] 	1
scalar barabasi_100nodes_network.node[2].core_layer 	interests[2] 	134754
scalar barabasi_100nodes_network.node[2].core_layer 	data[2] 	85244
scalar barabasi_100nodes_network.node[2].core_layer 	slots_sent[face$o[1]->client[2]] 	314800
scalar barabasi_100nodes_network.node[2].core_layer 	slots_sent[face$o[2]->node[0]] 	3069800
scalar barabasi_100nodes_network.node[2].core_layer 	slots_sent[face$o[3]->node[3]] 	263800
scalar barabasi_100nodes_network.node[2].core_layer 	slots_sent[face$o[4]->node[4]] 	672200
scalar barabasi_100nodes_network.node[2].core_layer 	slots_sent[face$o[5]->node[6]] 	196400
scalar barabasi_100nodes_network.node[2].core_layer 	slots_sent[face$o[6]->node[7]] 	1369400
scalar barabasi_100nodes_network.node[2].core_layer 	slots_sent[face$o[7]->node[8]] 	1196700
scalar barabasi_100nodes_network.node[2].core_layer 	slots_sent[face$o[8]->node[13]] 	504700
scalar barabasi_100nodes_network.node[2].core_layer 	slots_sent[face$o[9]->node[16]] 	1083100
scalar barabasi_100nodes_network.node[2].core_layer 	slots_sent[face$o[10]->node[18]] 	491500
scalar barabasi_100nodes_network.node[2].core_layer 	slots_sent[face$o[11]->node[25]] 	269400
scalar barabasi_100nodes_network.node[2].core_layer 	slots_sent[face$o[12]->node[26]] 	591300
scalar barabasi_100nodes_network.node[2].core_layer 	slots_sent[face$o[13]->node[29]] 	154000
scalar barabasi_100nodes_network.node[2].core_layer 	slots_sent[face$o[14]->node[32]] 	523000
scalar barabasi_100nodes_network.node[2].core_layer 	slots_sent[face$o[15]->node[33]] 	197100
scalar barabasi_100nodes_network.node[2].core_layer 	slots_sent[face$o[16]->node[34]] 	200300
scalar barabasi_100nodes_network.node[2].core_layer 	slots_sent[face$o[17]->node[36]] 	363700
scalar barabasi_100nodes_network.node[2].core_layer 	slots_sent[face$o[18]->node[41]] 	1001100
scalar barabasi_100nodes_network.node[2].core_layer 	slots_sent[face$o[19]->node[45]] 	198000
scalar barabasi_100nodes_network.node[2].core_layer 	slots_sent[face$o[20]->node[59]] 	193700
scalar barabasi_100nodes_network.node[2].core_layer 	slots_sent[face$o[21]->node[62]] 	428900
scalar barabasi_100nodes_network.node[2].core_layer 	slots_sent[face$o[22]->node[79]] 	192400
scalar barabasi_100nodes_network.node[2].content_store 	p_hit[2] 	0.36740282292177
scalar barabasi_100nodes_network.node[2].content_store 	hits[2] 	49509
scalar barabasi_100nodes_network.node[2].content_store 	misses[2] 	85245
scalar barabasi_100nodes_network.node[2].content_store 	decision_yes[2] 	85244
scalar barabasi_100nodes_network.node[2].content_store 	decision_no[2] 	0
scalar barabasi_100nodes_network.node[2].content_store 	decision_ratio[2] 	1
scalar barabasi_100nodes_network.node[3].core_layer 	interests[3] 	5118
scalar barabasi_100nodes_network.node[3].core_layer 	repo_load[3] 	1215
scalar barabasi_100nodes_network.node[3].core_layer 	data[3] 	2638
scalar barabasi_100nodes_network.node[3].core_layer 	slots_sent[face$o[1]->client[3]] 	317200
scalar barabasi_100nodes_network.node[3].core_layer 	slots_sent[face$o[2]->node[2]] 	0
scalar barabasi_100nodes_network.node[3].core_layer 	slots_sent[face$o[3]->node[52]] 	194600
scalar barabasi_100nodes_network.node[3].content_store 	p_hit[3] 	0.24716686205549
scalar barabasi_100nodes_network.node[3].content_store 	hits[3] 	1265
scalar barabasi_100nodes_network.node[3].content_store 	misses[3] 	3853
scalar barabasi_100nodes_network.node[3].content_store 	decision_yes[3] 	2638
scalar barabasi_100nodes_network.node[3].content_store 	decision_no[3] 	1215
scalar barabasi_100nodes_network.node[3].content_store 	decision_ratio[3] 	0.68466130288087
scalar barabasi_100nodes_network.node[4].core_layer 	interests[4] 	11921
scalar barabasi_100nodes_network.node[4].core_layer 	repo_load[4] 	2919
scalar barabasi_100nodes_network.node[4].core_layer 	data[4] 	6722
scalar barabasi_100nodes_network.node[4].core_layer 	slots_sent[face$o[1]->client[4]] 	317400
scalar barabasi_100nodes_network.node[4].core_layer 	slots_sent[face$o[2]->node[2]] 	0
scalar barabasi_100nodes_network.node[4].core_layer 	slots_sent[face$o[3]->node[27]] 	368900
scalar barabasi_100nodes_network.node[4].core_layer 	slots_sent[face$o[4]->node[30]] 	308200
scalar barabasi_100nodes_network.node[4].core_layer 	slots_sent[face$o[5]->node[85]] 	197500
scalar barabasi_100nodes_network.node[4].content_store 	p_hit[4] 	0.19117523697676
scalar barabasi_100nodes_network.node[4].content_store 	hits[4] 	2279
scalar barabasi_100nodes_network.node[4].content_store 	misses[4] 	9642
scalar barabasi_100nodes_network.node[4].content_store 	decision_yes[4] 	6722
scalar barabasi_100nodes_network.node[4].content_store 	decision_no[4] 	2919
scalar barabasi_100nodes_network.node[4].content_store 	decision_ratio[4] 	0.6972305777409
scalar barabasi_100nodes_network.node[5].core_layer 	interests[5] 	8914
scalar barabasi_100nodes_network.node[5].core_layer 	data[5] 	6791
scalar barabasi_100nodes_network.node[5].core_layer 	slots_sent[face$o[1]->client[5]] 	322500
scalar barabasi_100nodes_network.node[5].core_layer 	slots_sent[face$o[2]->node[0]] 	0
scalar barabasi_100nodes_network.node[5].core_layer 	slots_sent[face$o[3]->node[9]] 	197800
scalar barabasi_100nodes_network.node[5].core_layer 	slots_sent[face$o[4]->node[35]] 	371100
scalar barabasi_100nodes_network.node[5].content_store 	p_hit[5] 	0.23816468476554
scalar barabasi_100nodes_network.node[5].content_store 	hits[5] 	2123
scalar barabasi_100nodes_network.node[5].content_store 	misses[5] 	6791
scalar barabasi_100nodes_network.node[5].content_store 	decision_yes[5] 	6791
scalar barabasi_100nodes_network.node[5].content_store 	decision_no[5] 	0
scalar barabasi_100nodes_network.node[5].content_store 	decision_ratio[5] 	1
scalar barabasi_100nodes_network.node[6].core_layer 	interests[6] 	3163
scalar barabasi_100nodes_network.node[6].core_layer 	data[6] 	1964
scalar barabasi_100nodes_network.node[6].core_layer 	slots_sent[face$o[1]->client[6]] 	316300
scalar barabasi_100nodes_network.node[6].core_layer 	slots_sent[face$o[2]->node[2]] 	0
scalar barabasi_100nodes_network.node[6].content_store 	p_hit[6] 	0.37907050268732
scalar barabasi_100nodes_network.node[6].content_store 	hits[6] 	1199
scalar barabasi_100nodes_network.node[6].content_store 	misses[6] 	1964
scalar barabasi_100nodes_network.node[6].content_store 	decision_yes[6] 	1964
scalar barabasi_100nodes_network.node[6].content_store 	decision_no[6] 	0
scalar barabasi_100nodes_network.node[6].content_store 	decision_ratio[6] 	1
scalar barabasi_100nodes_network.node[7].core_layer 	interests[7] 	40898
scalar barabasi_100nodes_network.node[7].core_layer 	data[7] 	35132
scalar barabasi_100nodes_network.node[7].core_layer 	slots_sent[face$o[1]->client[7]] 	325800
scalar barabasi_100nodes_network.node[7].core_layer 	slots_sent[face$o[2]->node[2]] 	2012100
scalar barabasi_100nodes_network.node[7].core_layer 	slots_sent[face$o[3]->node[23]] 	811600
scalar barabasi_100nodes_network.node[7].core_layer 	slots_sent[face$o[4]->node[31]] 	546400
scalar barabasi_100nodes_network.node[7].core_layer 	slots_sent[face$o[5]->node[49]] 	193500
scalar barabasi_100nodes_network.node[7].core_layer 	slots_sent[face$o[6]->node[90]] 	200400
scalar barabasi_100nodes_network.node[7].content_store 	p_hit[7] 	0.14098488923664
scalar barabasi_100nodes_network.node[7].content_store 	hits[7] 	5766
scalar barabasi_100nodes_network.node[7].content_store 	misses[7] 	35132
scalar barabasi_100nodes_network.node[7].content_store 	decision_yes[7] 	35132
scalar barabasi_100nodes_network.node[7].content_store 	decision_no[7] 	0
scalar barabasi_100nodes_network.node[7].content_store 	decision_ratio[7] 	1
scalar barabasi_100nodes_network.node[8].core_layer 	interests[8] 	16493
scalar barabasi_100nodes_network.node[8].core_layer 	data[8] 	11967
scalar barabasi_100nodes_network.node[8].core_layer 	slots_sent[face$o[1]->client[8]] 	307200
scalar barabasi_100nodes_network.node[8].core_layer 	slots_sent[face$o[2]->node[2]] 	0
scalar barabasi_100nodes_network.node[8].core_layer 	slots_sent[face$o[3]->node[12]] 	188600
scalar barabasi_100nodes_network.node[8].core_layer 	slots_sent[face$o[4]->node[14]] 	195700
scalar barabasi_100nodes_network.node[8].core_layer 	slots_sent[face$o[5]->node[17]] 	199600
scalar barabasi_100nodes_network.node[8].core_layer 	slots_sent[face$o[6]->node[39]] 	366500
scalar barabasi_100nodes_network.node[8].core_layer 	slots_sent[face$o[7]->node[61]] 	200200
scalar barabasi_100nodes_network.node[8].core_layer 	slots_sent[face$o[8]->node[66]] 	191500
scalar barabasi_100nodes_network.node[8].content_store 	p_hit[8] 	0.27441945067604
scalar barabasi_100nodes_network.node[8].content_store 	hits[8] 	4526
scalar barabasi_100nodes_network.node[8].content_store 	misses[8] 	11967
scalar barabasi_100nodes_network.node[8].content_store 	decision_yes[8] 	11967
scalar barabasi_100nodes_network.node[8].content_store 	decision_no[8] 	0
scalar barabasi_100nodes_network.node[8].content_store 	decision_ratio[8] 	1
scalar barabasi_100nodes_network.node[9].core_layer 	interests[9] 	3253
scalar barabasi_100nodes_network.node[9].core_layer 	data[9] 	1978
scalar barabasi_100nodes_network.node[9].core_layer 	slots_sent[face$o[1]->client[9]] 	325300
scalar barabasi_100nodes_network.node[9].core_layer 	slots_sent[face$o[2]->node[5]] 	0
scalar barabasi_100nodes_network.node[9].content_store 	p_hit[9] 	0.39194589609591
scalar barabasi_100nodes_network.node[9].content_store 	hits[9] 	1275
scalar barabasi_100nodes_network.node[9].content_store 	misses[9] 	1978
scalar barabasi_100nodes_network.node[9].content_store 	decision_yes[9] 	1978
scalar barabasi_100nodes_network.node[9].content_store 	decision_no[9] 	0
scalar barabasi_100nodes_network.node[9].content_store 	decision_ratio[9] 	1
scalar barabasi_100nodes_network.node[10].core_layer 	interests[10] 	5207
scalar barabasi_100nodes_network.node[10].core_layer 	data[10] 	3639
scalar barabasi_100nodes_network.node[10].core_layer 	slots_sent[face$o[1]->client[10]] 	324700
scalar barabasi_100nodes_network.node[10].core_layer 	slots_sent[face$o[2]->node[0]] 	0
scalar barabasi_100nodes_network.node[10].core_layer 	slots_sent[face$o[3]->node[71]] 	196000
scalar barabasi_100nodes_network.node[10].content_store 	p_hit[10] 	0.30113309007106
scalar barabasi_100nodes_network.node[10].content_store 	hits[10] 	1568
scalar barabasi_100nodes_network.node[10].content_store 	misses[10] 	3639
scalar barabasi_100nodes_network.node[10].content_store 	decision_yes[10] 	3639
scalar barabasi_100nodes_network.node[10].content_store 	decision_no[10] 	0
scalar barabasi_100nodes_network.node[10].content_store 	decision_ratio[10] 	1
scalar barabasi_100nodes_network.node[11].core_layer 	interests[11] 	3189
scalar barabasi_100nodes_network.node[11].core_layer 	data[11] 	1936
scalar barabasi_100nodes_network.node[11].core_layer 	slots_sent[face$o[1]->client[11]] 	318900
scalar barabasi_100nodes_network.node[11].core_layer 	slots_sent[face$o[2]->node[0]] 	0
scalar barabasi_100nodes_network.node[11].content_store 	p_hit[11] 	0.39291313891502
scalar barabasi_100nodes_network.node[11].content_store 	hits[11] 	1253
scalar barabasi_100nodes_network.node[11].content_store 	misses[11] 	1936
scalar barabasi_100nodes_network.node[11].content_store 	decision_yes[11] 	1936
scalar barabasi_100nodes_network.node[11].content_store 	decision_no[11] 	0
scalar barabasi_100nodes_network.node[11].content_store 	decision_ratio[11] 	1
scalar barabasi_100nodes_network.node[12].core_layer 	interests[12] 	3138
scalar barabasi_100nodes_network.node[12].core_layer 	data[12] 	1886
scalar barabasi_100nodes_network.node[12].core_layer 	slots_sent[face$o[1]->client[12]] 	313800
scalar barabasi_100nodes_network.node[12].core_layer 	slots_sent[face$o[2]->node[8]] 	0
scalar barabasi_100nodes_network.node[12].content_store 	p_hit[12] 	0.39898024219248
scalar barabasi_100nodes_network.node[12].content_store 	hits[12] 	1252
scalar barabasi_100nodes_network.node[12].content_store 	misses[12] 	1886
scalar barabasi_100nodes_network.node[12].content_store 	decision_yes[12] 	1886
scalar barabasi_100nodes_network.node[12].content_store 	decision_no[12] 	0
scalar barabasi_100nodes_network.node[12].content_store 	decision_ratio[12] 	1
scalar barabasi_100nodes_network.node[13].core_layer 	interests[13] 	29355
scalar barabasi_100nodes_network.node[13].core_layer 	data[13] 	26462
scalar barabasi_100nodes_network.node[13].core_layer 	slots_sent[face$o[1]->client[13]] 	332300
scalar barabasi_100nodes_network.node[13].core_layer 	slots_sent[face$o[2]->node[2]] 	2071600
scalar barabasi_100nodes_network.node[13].core_layer 	slots_sent[face$o[3]->node[67]] 	149600
scalar barabasi_100nodes_network.node[13].core_layer 	slots_sent[face$o[4]->node[78]] 	382000
scalar barabasi_100nodes_network.node[13].content_store 	p_hit[13] 	0.098552205757111
scalar barabasi_100nodes_network.node[13].content_store 	hits[13] 	2893
scalar barabasi_100nodes_network.node[13].content_store 	misses[13] 	26462
scalar barabasi_100nodes_network.node[13].content_store 	decision_yes[13] 	26462
scalar barabasi_100nodes_network.node[13].content_store 	decision_no[13] 	0
scalar barabasi_100nodes_network.node[13].content_store 	decision_ratio[13] 	1
scalar barabasi_100nodes_network.node[14].core_layer 	interests[14] 	3156
scalar barabasi_100nodes_network.node[14].core_layer 	data[14] 	1957
scalar barabasi_100nodes_network.node[14].core_layer 	slots_sent[face$o[1]->client[14]] 	315600
scalar barabasi_100nodes_network.node[14].core_layer 	slots_sent[face$o[2]->node[8]] 	0
scalar barabasi_100nodes_network.node[14].content_store 	p_hit[14] 	0.37991128010139
scalar barabasi_100nodes_network.node[14].content_store 	hits[14] 	1199
scalar barabasi_100nodes_network.node[14].content_store 	misses[14] 	1957
scalar barabasi_100nodes_network.node[14].content_store 	decision_yes[14] 	1957
scalar barabasi_100nodes_network.node[14].content_store 	decision_no[14] 	0
scalar barabasi_100nodes_network.node[14].content_store 	decision_ratio[14] 	1
scalar barabasi_100nodes_network.node[15].core_layer 	interests[15] 	7360
scalar barabasi_100nodes_network.node[15].core_layer 	data[15] 	5316
scalar barabasi_100nodes_network.node[15].core_layer 	slots_sent[face$o[1]->client[15]] 	335100
scalar barabasi_100nodes_network.node[15].core_layer 	slots_sent[face$o[2]->node[0]] 	0
scalar barabasi_100nodes_network.node[15].core_layer 	slots_sent[face$o[3]->node[40]] 	202800
scalar barabasi_100nodes_network.node[15].core_layer 	slots_sent[face$o[4]->node[56]] 	198100
scalar barabasi_100nodes_network.node[15].content_store 	p_hit[15] 	0.27771739130435
scalar barabasi_100nodes_network.node[15].content_store 	hits[15] 	2044
scalar barabasi_100nodes_network.node[15].content_store 	misses[15] 	5316
scalar barabasi_100nodes_network.node[15].content_store 	decision_yes[15] 	5316
scalar barabasi_100nodes_network.node[15].content_store 	decision_no[15] 	0
scalar barabasi_100nodes_network.node[15].content_store 	decision_ratio[15] 	1
scalar barabasi_100nodes_network.node[16].core_layer 	interests[16] 	13328
scalar barabasi_100nodes_network.node[16].core_layer 	data[16] 	10831
scalar barabasi_100nodes_network.node[16].core_layer 	slots_sent[face$o[1]->client[16]] 	319400
scalar barabasi_100nodes_network.node[16].core_layer 	slots_sent[face$o[2]->node[2]] 	0
scalar barabasi_100nodes_network.node[16].core_layer 	slots_sent[face$o[3]->node[19]] 	814700
scalar barabasi_100nodes_network.node[16].core_layer 	slots_sent[face$o[4]->node[20]] 	198700
scalar barabasi_100nodes_network.node[16].content_store 	p_hit[16] 	0.18734993997599
scalar barabasi_100nodes_network.node[16].content_store 	hits[16] 	2497
scalar barabasi_100nodes_network.node[16].content_store 	misses[16] 	10831
scalar barabasi_100nodes_network.node[16].content_store 	decision_yes[16] 	10831
scalar barabasi_100nodes_network.node[16].content_store 	decision_no[16] 	0
scalar barabasi_100nodes_network.node[16].content_store 	decision_ratio[16] 	1
scalar barabasi_100nodes_network.node[17].core_layer 	interests[17] 	3236
scalar barabasi_100nodes_network.node[17].core_layer 	data[17] 	1996
scalar barabasi_100nodes_network.node[17].core_layer 	slots_sent[face$o[1]->client[17]] 	323600
scalar barabasi_100nodes_network.node[17].core_layer 	slots_sent[face$o[2]->node[8]] 	0
scalar barabasi_100nodes_network.node[17].content_store 	p_hit[17] 	0.3831891223733
scalar barabasi_100nodes_network.node[17].content_store 	hits[17] 	1240
scalar barabasi_100nodes_network.node[17].content_store 	misses[17] 	1996
scalar barabasi_100nodes_network.node[17].content_store 	decision_yes[17] 	1996
scalar barabasi_100nodes_network.node[17].content_store 	decision_no[17] 	0
scalar barabasi_100nodes_network.node[17].content_store 	decision_ratio[17] 	1
scalar barabasi_100nodes_network.node[18].core_layer 	interests[18] 	30035
scalar barabasi_100nodes_network.node[18].core_layer 	data[18] 	27010
scalar barabasi_100nodes_network.node[18].core_layer 	slots_sent[face$o[1]->client[18]] 	312100
scalar barabasi_100nodes_network.node[18].core_layer 	slots_sent[face$o[2]->node[2]] 	2153500
scalar barabasi_100nodes_network.node[18].core_layer 	slots_sent[face$o[3]->node[53]] 	199000
scalar barabasi_100nodes_network.node[18].core_layer 	slots_sent[face$o[4]->node[68]] 	146100
scalar barabasi_100nodes_network.node[18].core_layer 	slots_sent[face$o[5]->node[72]] 	192800
scalar barabasi_100nodes_network.node[18].content_store 	p_hit[18] 	0.10071583152988
scalar barabasi_100nodes_network.node[18].content_store 	hits[18] 	3025
scalar barabasi_100nodes_network.node[18].content_store 	misses[18] 	27010
scalar barabasi_100nodes_network.node[18].content_store 	decision_yes[18] 	27010
scalar barabasi_100nodes_network.node[18].content_store 	decision_no[18] 	0
scalar barabasi_100nodes_network.node[18].content_store 	decision_ratio[18] 	1
scalar barabasi_100nodes_network.node[19].core_layer 	interests[19] 	11262
scalar barabasi_100nodes_network.node[19].core_layer 	data[19] 	8147
scalar barabasi_100nodes_network.node[19].core_layer 	slots_sent[face$o[1]->client[19]] 	332800
scalar barabasi_100nodes_network.node[19].core_layer 	slots_sent[face$o[2]->node[16]] 	0
scalar barabasi_100nodes_network.node[19].core_layer 	slots_sent[face$o[3]->node[63]] 	195700
scalar barabasi_100nodes_network.node[19].core_layer 	slots_sent[face$o[4]->node[70]] 	198900
scalar barabasi_100nodes_network.node[19].core_layer 	slots_sent[face$o[5]->node[80]] 	198800
scalar barabasi_100nodes_network.node[19].core_layer 	slots_sent[face$o[6]->node[89]] 	200000
scalar barabasi_100nodes_network.node[19].content_store 	p_hit[19] 	0.27659385544308
scalar barabasi_100nodes_network.node[19].content_store 	hits[19] 	3115
scalar barabasi_100nodes_network.node[19].content_store 	misses[19] 	8147
scalar barabasi_100nodes_network.node[19].content_store 	decision_yes[19] 	8147
scalar barabasi_100nodes_network.node[19].content_store 	decision_no[19] 	0
scalar barabasi_100nodes_network.node[19].content_store 	decision_ratio[19] 	1
scalar barabasi_100nodes_network.node[20].core_layer 	interests[20] 	3156
scalar barabasi_100nodes_network.node[20].core_layer 	data[20] 	1987
scalar barabasi_100nodes_network.node[20].core_layer 	slots_sent[face$o[1]->client[20]] 	315600
scalar barabasi_100nodes_network.node[20].core_layer 	slots_sent[face$o[2]->node[16]] 	0
scalar barabasi_100nodes_network.node[20].content_store 	p_hit[20] 	0.37040557667934
scalar barabasi_100nodes_network.node[20].content_store 	hits[20] 	1169
scalar barabasi_100nodes_network.node[20].content_store 	misses[20] 	1987
scalar barabasi_100nodes_network.node[20].content_store 	decision_yes[20] 	1987
scalar barabasi_100nodes_network.node[20].content_store 	decision_no[20] 	0
scalar barabasi_100nodes_network.node[20].content_store 	decision_ratio[20] 	1
scalar barabasi_100nodes_network.node[21].core_layer 	interests[21] 	7173
scalar barabasi_100nodes_network.node[21].core_layer 	data[21] 	5194
scalar barabasi_100nodes_network.node[21].core_layer 	slots_sent[face$o[1]->client[21]] 	324200
scalar barabasi_100nodes_network.node[21].core_layer 	slots_sent[face$o[2]->node[0]] 	0
scalar barabasi_100nodes_network.node[21].core_layer 	slots_sent[face$o[3]->node[24]] 	196400
scalar barabasi_100nodes_network.node[21].core_layer 	slots_sent[face$o[4]->node[57]] 	196700
scalar barabasi_100nodes_network.node[21].content_store 	p_hit[21] 	0.27589572006134
scalar barabasi_100nodes_network.node[21].content_store 	hits[21] 	1979
scalar barabasi_100nodes_network.node[21].content_store 	misses[21] 	5194
scalar barabasi_100nodes_network.node[21].content_store 	decision_yes[21] 	5194
scalar barabasi_100nodes_network.node[21].content_store 	decision_no[21] 	0
scalar barabasi_100nodes_network.node[21].content_store 	decision_ratio[21] 	1
scalar barabasi_100nodes_network.node[22].core_layer 	interests[22] 	3187
scalar barabasi_100nodes_network.node[22].core_layer 	data[22] 	1985
scalar barabasi_100nodes_network.node[22].core_layer 	slots_sent[face$o[1]->client[22]] 	318700
scalar barabasi_100nodes_network.node[22].core_layer 	slots_sent[face$o[2]->node[0]] 	0
scalar barabasi_100nodes_network.node[22].content_store 	p_hit[22] 	0.37715720112959
scalar barabasi_100nodes_network.node[22].content_store 	hits[22] 	1202
scalar barabasi_100nodes_network.node[22].content_store 	misses[22] 	1985
scalar barabasi_100nodes_network.node[22].content_store 	decision_yes[22] 	1985
scalar barabasi_100nodes_network.node[22].content_store 	decision_no[22] 	0
scalar barabasi_100nodes_network.node[22].content_store 	decision_ratio[22] 	1
scalar barabasi_100nodes_network.node[23].core_layer 	interests[23] 	35716
scalar barabasi_100nodes_network.node[23].core_layer 	data[23] 	30685
scalar barabasi_100nodes_network.node[23].core_layer 	slots_sent[face$o[1]->client[23]] 	317800
scalar barabasi_100nodes_network.node[23].core_layer 	slots_sent[face$o[2]->node[7]] 	2143800
scalar barabasi_100nodes_network.node[23].core_layer 	slots_sent[face$o[3]->node[46]] 	369700
scalar barabasi_100nodes_network.node[23].core_layer 	slots_sent[face$o[4]->node[47]] 	147200
scalar barabasi_100nodes_network.node[23].core_layer 	slots_sent[face$o[5]->node[51]] 	198000
scalar barabasi_100nodes_network.node[23].core_layer 	slots_sent[face$o[6]->node[83]] 	202800
scalar barabasi_100nodes_network.node[23].core_layer 	slots_sent[face$o[7]->node[86]] 	192300
scalar barabasi_100nodes_network.node[23].content_store 	p_hit[23] 	0.14086123866054
scalar barabasi_100nodes_network.node[23].content_store 	hits[23] 	5031
scalar barabasi_100nodes_network.node[23].content_store 	misses[23] 	30685
scalar barabasi_100nodes_network.node[23].content_store 	decision_yes[23] 	30685
scalar barabasi_100nodes_network.node[23].content_store 	decision_no[23] 	0
scalar barabasi_100nodes_network.node[23].content_store 	decision_ratio[23] 	1
scalar barabasi_100nodes_network.node[24].core_layer 	interests[24] 	3288
scalar barabasi_100nodes_network.node[24].core_layer 	data[24] 	1964
scalar barabasi_100nodes_network.node[24].core_layer 	slots_sent[face$o[1]->client[24]] 	328800
scalar barabasi_100nodes_network.node[24].core_layer 	slots_sent[face$o[2]->node[21]] 	0
scalar barabasi_100nodes_network.node[24].content_store 	p_hit[24] 	0.40267639902676
scalar barabasi_100nodes_network.node[24].content_store 	hits[24] 	1324
scalar barabasi_100nodes_network.node[24].content_store 	misses[24] 	1964
scalar barabasi_100nodes_network.node[24].content_store 	decision_yes[24] 	1964
scalar barabasi_100nodes_network.node[24].content_store 	decision_no[24] 	0
scalar barabasi_100nodes_network.node[24].content_store 	decision_ratio[24] 	1
scalar barabasi_100nodes_network.node[25].core_layer 	interests[25] 	27525
scalar barabasi_100nodes_network.node[25].core_layer 	repo_load[25] 	23616
scalar barabasi_100nodes_network.node[25].core_layer 	data[25] 	2694
scalar barabasi_100nodes_network.node[25].core_layer 	slots_sent[face$o[1]->client[25]] 	325200
scalar barabasi_100nodes_network.node[25].core_layer 	slots_sent[face$o[2]->node[2]] 	2287200
scalar barabasi_100nodes_network.node[25].core_layer 	slots_sent[face$o[3]->node[38]] 	140100
scalar barabasi_100nodes_network.node[25].content_store 	p_hit[25] 	0.044141689373297
scalar barabasi_100nodes_network.node[25].content_store 	hits[25] 	1215
scalar barabasi_100nodes_network.node[25].content_store 	misses[25] 	26310
scalar barabasi_100nodes_network.node[25].content_store 	decision_yes[25] 	2694
scalar barabasi_100nodes_network.node[25].content_store 	decision_no[25] 	23616
scalar barabasi_100nodes_network.node[25].content_store 	decision_ratio[25] 	0.1023945267959
scalar barabasi_100nodes_network.node[26].core_layer 	interests[26] 	7910
scalar barabasi_100nodes_network.node[26].core_layer 	data[26] 	5913
scalar barabasi_100nodes_network.node[26].core_layer 	slots_sent[face$o[1]->client[26]] 	322200
scalar barabasi_100nodes_network.node[26].core_layer 	slots_sent[face$o[2]->node[2]] 	0
scalar barabasi_100nodes_network.node[26].core_layer 	slots_sent[face$o[3]->node[77]] 	268700
scalar barabasi_100nodes_network.node[26].core_layer 	slots_sent[face$o[4]->node[91]] 	200100
scalar barabasi_100nodes_network.node[26].content_store 	p_hit[26] 	0.25246523388116
scalar barabasi_100nodes_network.node[26].content_store 	hits[26] 	1997
scalar barabasi_100nodes_network.node[26].content_store 	misses[26] 	5913
scalar barabasi_100nodes_network.node[26].content_store 	decision_yes[26] 	5913
scalar barabasi_100nodes_network.node[26].content_store 	decision_no[26] 	0
scalar barabasi_100nodes_network.node[26].content_store 	decision_ratio[26] 	1
scalar barabasi_100nodes_network.node[27].core_layer 	interests[27] 	5259
scalar barabasi_100nodes_network.node[27].core_layer 	data[27] 	3689
scalar barabasi_100nodes_network.node[27].core_layer 	slots_sent[face$o[1]->client[27]] 	323300
scalar barabasi_100nodes_network.node[27].core_layer 	slots_sent[face$o[2]->node[4]] 	0
scalar barabasi_100nodes_network.node[27].core_layer 	slots_sent[face$o[3]->node[99]] 	202600
scalar barabasi_100nodes_network.node[27].content_store 	p_hit[27] 	0.29853584331622
scalar barabasi_100nodes_network.node[27].content_store 	hits[27] 	1570
scalar barabasi_100nodes_network.node[27].content_store 	misses[27] 	3689
scalar barabasi_100nodes_network.node[27].content_store 	decision_yes[27] 	3689
scalar barabasi_100nodes_network.node[27].content_store 	decision_no[27] 	0
scalar barabasi_100nodes_network.node[27].content_store 	decision_ratio[27] 	1
scalar barabasi_100nodes_network.node[28].core_layer 	interests[28] 	3234
scalar barabasi_100nodes_network.node[28].core_layer 	data[28] 	1943
scalar barabasi_100nodes_network.node[28].core_layer 	slots_sent[face$o[1]->client[28]] 	323400
scalar barabasi_100nodes_network.node[28].core_layer 	slots_sent[face$o[2]->node[0]] 	0
scalar barabasi_100nodes_network.node[28].content_store 	p_hit[28] 	0.39919604205318
scalar barabasi_100nodes_network.node[28].content_store 	hits[28] 	1291
scalar barabasi_100nodes_network.node[28].content_store 	misses[28] 	1943
scalar barabasi_100nodes_network.node[28].content_store 	decision_yes[28] 	1943
scalar barabasi_100nodes_network.node[28].content_store 	decision_no[28] 	0
scalar barabasi_100nodes_network.node[28].content_store 	decision_ratio[28] 	1
scalar barabasi_100nodes_network.node[29].core_layer 	interests[29] 	3281
scalar barabasi_100nodes_network.node[29].core_layer 	repo_load[29] 	670
scalar barabasi_100nodes_network.node[29].core_layer 	data[29] 	1540
scalar barabasi_100nodes_network.node[29].core_layer 	slots_sent[face$o[1]->client[29]] 	328100
scalar barabasi_100nodes_network.node[29].core_layer 	slots_sent[face$o[2]->node[2]] 	0
scalar barabasi_100nodes_network.node[29].content_store 	p_hit[29] 	0.32642487046632
scalar barabasi_100nodes_network.node[29].content_store 	hits[29] 	1071
scalar barabasi_100nodes_network.node[29].content_store 	misses[29] 	2210
scalar barabasi_100nodes_network.node[29].content_store 	decision_yes[29] 	1540
scalar barabasi_100nodes_network.node[29].content_store 	decision_no[29] 	670
scalar barabasi_100nodes_network.node[29].content_store 	decision_ratio[29] 	0.69683257918552
scalar barabasi_100nodes_network.node[30].core_layer 	interests[30] 	4574
scalar barabasi_100nodes_network.node[30].core_layer 	data[30] 	3082
scalar barabasi_100nodes_network.node[30].core_layer 	slots_sent[face$o[1]->client[30]] 	313700
scalar barabasi_100nodes_network.node[30].core_layer 	slots_sent[face$o[2]->node[4]] 	0
scalar barabasi_100nodes_network.node[30].core_layer 	slots_sent[face$o[3]->node[88]] 	143600
scalar barabasi_100nodes_network.node[30].content_store 	p_hit[30] 	0.32597289024923
scalar barabasi_100nodes_network.node[30].content_store 	hits[30] 	1491
scalar barabasi_100nodes_network.node[30].content_store 	misses[30] 	3083
scalar barabasi_100nodes_network.node[30].content_store 	decision_yes[30] 	3082
scalar barabasi_100nodes_network.node[30].content_store 	decision_no[30] 	0
scalar barabasi_100nodes_network.node[30].content_store 	decision_ratio[30] 	1
scalar barabasi_100nodes_network.node[31].core_layer 	interests[31] 	7000
scalar barabasi_100nodes_network.node[31].core_layer 	data[31] 	5464
scalar barabasi_100nodes_network.node[31].core_layer 	slots_sent[face$o[1]->client[31]] 	317100
scalar barabasi_100nodes_network.node[31].core_layer 	slots_sent[face$o[2]->node[7]] 	0
scalar barabasi_100nodes_network.node[31].core_layer 	slots_sent[face$o[3]->node[65]] 	382900
scalar barabasi_100nodes_network.node[31].content_store 	p_hit[31] 	0.21942857142857
scalar barabasi_100nodes_network.node[31].content_store 	hits[31] 	1536
scalar barabasi_100nodes_network.node[31].content_store 	misses[31] 	5464
scalar barabasi_100nodes_network.node[31].content_store 	decision_yes[31] 	5464
scalar barabasi_100nodes_network.node[31].content_store 	decision_no[31] 	0
scalar barabasi_100nodes_network.node[31].content_store 	decision_ratio[31] 	1
scalar barabasi_100nodes_network.node[32].core_layer 	interests[32] 	7241
scalar barabasi_100nodes_network.node[32].core_layer 	data[32] 	5230
scalar barabasi_100nodes_network.node[32].core_layer 	slots_sent[face$o[1]->client[32]] 	321900
scalar barabasi_100nodes_network.node[32].core_layer 	slots_sent[face$o[2]->node[2]] 	0
scalar barabasi_100nodes_network.node[32].core_layer 	slots_sent[face$o[3]->node[43]] 	202800
scalar barabasi_100nodes_network.node[32].core_layer 	slots_sent[face$o[4]->node[64]] 	199400
scalar barabasi_100nodes_network.node[32].content_store 	p_hit[32] 	0.27772407126088
scalar barabasi_100nodes_network.node[32].content_store 	hits[32] 	2011
scalar barabasi_100nodes_network.node[32].content_store 	misses[32] 	5230
scalar barabasi_100nodes_network.node[32].content_store 	decision_yes[32] 	5230
scalar barabasi_100nodes_network.node[32].content_store 	decision_no[32] 	0
scalar barabasi_100nodes_network.node[32].content_store 	decision_ratio[32] 	1
scalar barabasi_100nodes_network.node[33].core_layer 	interests[33] 	3198
scalar barabasi_100nodes_network.node[33].core_layer 	data[33] 	1971
scalar barabasi_100nodes_network.node[33].core_layer 	slots_sent[face$o[1]->client[33]] 	319800
scalar barabasi_100nodes_network.node[33].core_layer 	slots_sent[face$o[2]->node[2]] 	0
scalar barabasi_100nodes_network.node[33].content_store 	p_hit[33] 	0.38367729831144
scalar barabasi_100nodes_network.node[33].content_store 	hits[33] 	1227
scalar barabasi_100nodes_network.node[33].content_store 	misses[33] 	1971
scalar barabasi_100nodes_network.node[33].content_store 	decision_yes[33] 	1971
scalar barabasi_100nodes_network.node[33].content_store 	decision_no[33] 	0
scalar barabasi_100nodes_network.node[33].content_store 	decision_ratio[33] 	1
scalar barabasi_100nodes_network.node[34].core_layer 	interests[34] 	3293
scalar barabasi_100nodes_network.node[34].core_layer 	data[34] 	2003
scalar barabasi_100nodes_network.node[34].core_layer 	slots_sent[face$o[1]->client[34]] 	329300
scalar barabasi_100nodes_network.node[34].core_layer 	slots_sent[face$o[2]->node[2]] 	0
scalar barabasi_100nodes_network.node[34].content_store 	p_hit[34] 	0.3917400546614
scalar barabasi_100nodes_network.node[34].content_store 	hits[34] 	1290
scalar barabasi_100nodes_network.node[34].content_store 	misses[34] 	2003
scalar barabasi_100nodes_network.node[34].content_store 	decision_yes[34] 	2003
scalar barabasi_100nodes_network.node[34].content_store 	decision_no[34] 	0
scalar barabasi_100nodes_network.node[34].content_store 	decision_ratio[34] 	1
scalar barabasi_100nodes_network.node[35].core_layer 	interests[35] 	5241
scalar barabasi_100nodes_network.node[35].core_layer 	data[35] 	3711
scalar barabasi_100nodes_network.node[35].core_layer 	slots_sent[face$o[1]->client[35]] 	319800
scalar barabasi_100nodes_network.node[35].core_layer 	slots_sent[face$o[2]->node[5]] 	0
scalar barabasi_100nodes_network.node[35].core_layer 	slots_sent[face$o[3]->node[50]] 	204300
scalar barabasi_100nodes_network.node[35].content_store 	p_hit[35] 	0.29192902117916
scalar barabasi_100nodes_network.node[35].content_store 	hits[35] 	1530
scalar barabasi_100nodes_network.node[35].content_store 	misses[35] 	3711
scalar barabasi_100nodes_network.node[35].content_store 	decision_yes[35] 	3711
scalar barabasi_100nodes_network.node[35].content_store 	decision_no[35] 	0
scalar barabasi_100nodes_network.node[35].content_store 	decision_ratio[35] 	1
scalar barabasi_100nodes_network.node[36].core_layer 	interests[36] 	5237
scalar barabasi_100nodes_network.node[36].core_layer 	data[36] 	3637
scalar barabasi_100nodes_network.node[36].core_layer 	slots_sent[face$o[1]->client[36]] 	329100
scalar barabasi_100nodes_network.node[36].core_layer 	slots_sent[face$o[2]->node[2]] 	0
scalar barabasi_100nodes_network.node[36].core_layer 	slots_sent[face$o[3]->node[75]] 	194600
scalar barabasi_100nodes_network.node[36].content_store 	p_hit[36] 	0.3055184265801
scalar barabasi_100nodes_network.node[36].content_store 	hits[36] 	1600
scalar barabasi_100nodes_network.node[36].content_store 	misses[36] 	3637
scalar barabasi_100nodes_network.node[36].content_store 	decision_yes[36] 	3637
scalar barabasi_100nodes_network.node[36].content_store 	decision_no[36] 	0
scalar barabasi_100nodes_network.node[36].content_store 	decision_ratio[36] 	1
scalar barabasi_100nodes_network.node[37].core_layer 	interests[37] 	3203
scalar barabasi_100nodes_network.node[37].core_layer 	data[37] 	1986
scalar barabasi_100nodes_network.node[37].core_layer 	slots_sent[face$o[1]->client[37]] 	320300
scalar barabasi_100nodes_network.node[37].core_layer 	slots_sent[face$o[2]->node[0]] 	0
scalar barabasi_100nodes_network.node[37].content_store 	p_hit[37] 	0.37995629097721
scalar barabasi_100nodes_network.node[37].content_store 	hits[37] 	1217
scalar barabasi_100nodes_network.node[37].content_store 	misses[37] 	1986
scalar barabasi_100nodes_network.node[37].content_store 	decision_yes[37] 	1986
scalar barabasi_100nodes_network.node[37].content_store 	decision_no[37] 	0
scalar barabasi_100nodes_network.node[37].content_store 	decision_ratio[37] 	1
scalar barabasi_100nodes_network.node[38].core_layer 	interests[38] 	3072
scalar barabasi_100nodes_network.node[38].core_layer 	repo_load[38] 	714
scalar barabasi_100nodes_network.node[38].core_layer 	data[38] 	1401
scalar barabasi_100nodes_network.node[38].core_layer 	slots_sent[face$o[1]->client[38]] 	307200
scalar barabasi_100nodes_network.node[38].core_layer 	slots_sent[face$o[2]->node[25]] 	0
scalar barabasi_100nodes_network.node[38].content_store 	p_hit[38] 	0.3115234375
scalar barabasi_100nodes_network.node[38].content_store 	hits[38] 	957
scalar barabasi_100nodes_network.node[38].content_store 	misses[38] 	2115
scalar barabasi_100nodes_network.node[38].content_store 	decision_yes[38] 	1401
scalar barabasi_100nodes_network.node[38].content_store 	decision_no[38] 	714
scalar barabasi_100nodes_network.node[38].content_store 	decision_ratio[38] 	0.66241134751773
scalar barabasi_100nodes_network.node[39].core_layer 	interests[39] 	5158
scalar barabasi_100nodes_network.node[39].core_layer 	data[39] 	3665
scalar barabasi_100nodes_network.node[39].core_layer 	slots_sent[face$o[1]->client[39]] 	312500
scalar barabasi_100nodes_network.node[39].core_layer 	slots_sent[face$o[2]->node[8]] 	0
scalar barabasi_100nodes_network.node[39].core_layer 	slots_sent[face$o[3]->node[60]] 	203300
scalar barabasi_100nodes_network.node[39].content_store 	p_hit[39] 	0.28945327646375
scalar barabasi_100nodes_network.node[39].content_store 	hits[39] 	1493
scalar barabasi_100nodes_network.node[39].content_store 	misses[39] 	3665
scalar barabasi_100nodes_network.node[39].content_store 	decision_yes[39] 	3665
scalar barabasi_100nodes_network.node[39].content_store 	decision_no[39] 	0
scalar barabasi_100nodes_network.node[39].content_store 	decision_ratio[39] 	1
scalar barabasi_100nodes_network.node[40].core_layer 	interests[40] 	3239
scalar barabasi_100nodes_network.node[40].core_layer 	data[40] 	2028
scalar barabasi_100nodes_network.node[40].core_layer 	slots_sent[face$o[1]->client[40]] 	323900
scalar barabasi_100nodes_network.node[40].core_layer 	slots_sent[face$o[2]->node[15]] 	0
scalar barabasi_100nodes_network.node[40].content_store 	p_hit[40] 	0.37388082741587
scalar barabasi_100nodes_network.node[40].content_store 	hits[40] 	1211
scalar barabasi_100nodes_network.node[40].content_store 	misses[40] 	2028
scalar barabasi_100nodes_network.node[40].content_store 	decision_yes[40] 	2028
scalar barabasi_100nodes_network.node[40].content_store 	decision_no[40] 	0
scalar barabasi_100nodes_network.node[40].content_store 	decision_ratio[40] 	1
scalar barabasi_100nodes_network.node[41].core_layer 	interests[41] 	13619
scalar barabasi_100nodes_network.node[41].core_layer 	data[41] 	10011
scalar barabasi_100nodes_network.node[41].core_layer 	slots_sent[face$o[1]->client[41]] 	314900
scalar barabasi_100nodes_network.node[41].core_layer 	slots_sent[face$o[2]->node[2]] 	0
scalar barabasi_100nodes_network.node[41].core_layer 	slots_sent[face$o[3]->node[42]] 	190500
scalar barabasi_100nodes_network.node[41].core_layer 	slots_sent[face$o[4]->node[48]] 	192100
scalar barabasi_100nodes_network.node[41].core_layer 	slots_sent[face$o[5]->node[54]] 	270900
scalar barabasi_100nodes_network.node[41].core_layer 	slots_sent[face$o[6]->node[55]] 	195700
scalar barabasi_100nodes_network.node[41].core_layer 	slots_sent[face$o[7]->node[69]] 	197800
scalar barabasi_100nodes_network.node[41].content_store 	p_hit[41] 	0.26492400323078
scalar barabasi_100nodes_network.node[41].content_store 	hits[41] 	3608
scalar barabasi_100nodes_network.node[41].content_store 	misses[41] 	10011
scalar barabasi_100nodes_network.node[41].content_store 	decision_yes[41] 	10011
scalar barabasi_100nodes_network.node[41].content_store 	decision_no[41] 	0
scalar barabasi_100nodes_network.node[41].content_store 	decision_ratio[41] 	1
scalar barabasi_100nodes_network.node[42].core_layer 	interests[42] 	3133
scalar barabasi_100nodes_network.node[42].core_layer 	data[42] 	1905
scalar barabasi_100nodes_network.node[42].core_layer 	slots_sent[face$o[1]->client[42]] 	313300
scalar barabasi_100nodes_network.node[42].core_layer 	slots_sent[face$o[2]->node[41]] 	0
scalar barabasi_100nodes_network.node[42].content_store 	p_hit[42] 	0.39195659112672
scalar barabasi_100nodes_network.node[42].content_store 	hits[42] 	1228
scalar barabasi_100nodes_network.node[42].content_store 	misses[42] 	1905
scalar barabasi_100nodes_network.node[42].content_store 	decision_yes[42] 	1905
scalar barabasi_100nodes_network.node[42].content_store 	decision_no[42] 	0
scalar barabasi_100nodes_network.node[42].content_store 	decision_ratio[42] 	1
scalar barabasi_100nodes_network.node[43].core_layer 	interests[43] 	3244
scalar barabasi_100nodes_network.node[43].core_layer 	data[43] 	2028
scalar barabasi_100nodes_network.node[43].core_layer 	slots_sent[face$o[1]->client[43]] 	324400
scalar barabasi_100nodes_network.node[43].core_layer 	slots_sent[face$o[2]->node[32]] 	0
scalar barabasi_100nodes_network.node[43].content_store 	p_hit[43] 	0.37484586929716
scalar barabasi_100nodes_network.node[43].content_store 	hits[43] 	1216
scalar barabasi_100nodes_network.node[43].content_store 	misses[43] 	2028
scalar barabasi_100nodes_network.node[43].content_store 	decision_yes[43] 	2028
scalar barabasi_100nodes_network.node[43].content_store 	decision_no[43] 	0
scalar barabasi_100nodes_network.node[43].content_store 	decision_ratio[43] 	1
scalar barabasi_100nodes_network.node[44].core_layer 	interests[44] 	3183
scalar barabasi_100nodes_network.node[44].core_layer 	data[44] 	1952
scalar barabasi_100nodes_network.node[44].core_layer 	slots_sent[face$o[1]->client[44]] 	318300
scalar barabasi_100nodes_network.node[44].core_layer 	slots_sent[face$o[2]->node[0]] 	0
scalar barabasi_100nodes_network.node[44].content_store 	p_hit[44] 	0.38674206723217
scalar barabasi_100nodes_network.node[44].content_store 	hits[44] 	1231
scalar barabasi_100nodes_network.node[44].content_store 	misses[44] 	1952
scalar barabasi_100nodes_network.node[44].content_store 	decision_yes[44] 	1952
scalar barabasi_100nodes_network.node[44].content_store 	decision_no[44] 	0
scalar barabasi_100nodes_network.node[44].content_store 	decision_ratio[44] 	1
scalar barabasi_100nodes_network.node[45].core_layer 	interests[45] 	3236
scalar barabasi_100nodes_network.node[45].core_layer 	data[45] 	1980
scalar barabasi_100nodes_network.node[45].core_layer 	slots_sent[face$o[1]->client[45]] 	323600
scalar barabasi_100nodes_network.node[45].core_layer 	slots_sent[face$o[2]->node[2]] 	0
scalar barabasi_100nodes_network.node[45].content_store 	p_hit[45] 	0.38813349814586
scalar barabasi_100nodes_network.node[45].content_store 	hits[45] 	1256
scalar barabasi_100nodes_network.node[45].content_store 	misses[45] 	1980
scalar barabasi_100nodes_network.node[45].content_store 	decision_yes[45] 	1980
scalar barabasi_100nodes_network.node[45].content_store 	decision_no[45] 	0
scalar barabasi_100nodes_network.node[45].content_store 	decision_ratio[45] 	1
scalar barabasi_100nodes_network.node[46].core_layer 	interests[46] 	5230
scalar barabasi_100nodes_network.node[46].core_layer 	data[46] 	3697
scalar barabasi_100nodes_network.node[46].core_layer 	slots_sent[face$o[1]->client[46]] 	316900
scalar barabasi_100nodes_network.node[46].core_layer 	slots_sent[face$o[2]->node[23]] 	0
scalar barabasi_100nodes_network.node[46].core_layer 	slots_sent[face$o[3]->node[82]] 	206100
scalar barabasi_100nodes_network.node[46].content_store 	p_hit[46] 	0.29311663479924
scalar barabasi_100nodes_network.node[46].content_store 	hits[46] 	1533
scalar barabasi_100nodes_network.node[46].content_store 	misses[46] 	3697
scalar barabasi_100nodes_network.node[46].content_store 	decision_yes[46] 	3697
scalar barabasi_100nodes_network.node[46].content_store 	decision_no[46] 	0
scalar barabasi_100nodes_network.node[46].content_store 	decision_ratio[46] 	1
scalar barabasi_100nodes_network.node[47].core_layer 	interests[47] 	25771
scalar barabasi_100nodes_network.node[47].core_layer 	repo_load[47] 	23492
scalar barabasi_100nodes_network.node[47].core_layer 	data[47] 	1472
scalar barabasi_100nodes_network.node[47].core_layer 	slots_sent[face$o[1]->client[47]] 	320200
scalar barabasi_100nodes_network.node[47].core_layer 	slots_sent[face$o[2]->node[23]] 	2256900
scalar barabasi_100nodes_network.node[47].content_store 	p_hit[47] 	0.031314267975632
scalar barabasi_100nodes_network.node[47].content_store 	hits[47] 	807
scalar barabasi_100nodes_network.node[47].content_store 	misses[47] 	24964
scalar barabasi_100nodes_network.node[47].content_store 	decision_yes[47] 	1472
scalar barabasi_100nodes_network.node[47].content_store 	decision_no[47] 	23492
scalar barabasi_100nodes_network.node[47].content_store 	decision_ratio[47] 	0.058964909469636
scalar barabasi_100nodes_network.node[48].core_layer 	interests[48] 	3040
scalar barabasi_100nodes_network.node[48].core_layer 	data[48] 	1921
scalar barabasi_100nodes_network.node[48].core_layer 	slots_sent[face$o[1]->client[48]] 	304000
scalar barabasi_100nodes_network.node[48].core_layer 	slots_sent[face$o[2]->node[41]] 	0
scalar barabasi_100nodes_network.node[48].content_store 	p_hit[48] 	0.36809210526316
scalar barabasi_100nodes_network.node[48].content_store 	hits[48] 	1119
scalar barabasi_100nodes_network.node[48].content_store 	misses[48] 	1921
scalar barabasi_100nodes_network.node[48].content_store 	decision_yes[48] 	1921
scalar barabasi_100nodes_network.node[48].content_store 	decision_no[48] 	0
scalar barabasi_100nodes_network.node[48].content_store 	decision_ratio[48] 	1
scalar barabasi_100nodes_network.node[49].core_layer 	interests[49] 	3208
scalar barabasi_100nodes_network.node[49].core_layer 	data[49] 	1935
scalar barabasi_100nodes_network.node[49].core_layer 	slots_sent[face$o[1]->client[49]] 	320800
scalar barabasi_100nodes_network.node[49].core_layer 	slots_sent[face$o[2]->node[7]] 	0
scalar barabasi_100nodes_network.node[49].content_store 	p_hit[49] 	0.39682044887781
scalar barabasi_100nodes_network.node[49].content_store 	hits[49] 	1273
scalar barabasi_100nodes_network.node[49].content_store 	misses[49] 	1935
scalar barabasi_100nodes_network.node[49].content_store 	decision_yes[49] 	1935
scalar barabasi_100nodes_network.node[49].content_store 	decision_no[49] 	0
scalar barabasi_100nodes_network.node[49].content_store 	decision_ratio[49] 	1
scalar barabasi_100nodes_network.node[50].core_layer 	interests[50] 	3287
scalar barabasi_100nodes_network.node[50].core_layer 	data[50] 	2043
scalar barabasi_100nodes_network.node[50].core_layer 	slots_sent[face$o[1]->client[50]] 	328700
scalar barabasi_100nodes_network.node[50].core_layer 	slots_sent[face$o[2]->node[35]] 	0
scalar barabasi_100nodes_network.node[50].content_store 	p_hit[50] 	0.37846060237298
scalar barabasi_100nodes_network.node[50].content_store 	hits[50] 	1244
scalar barabasi_100nodes_network.node[50].content_store 	misses[50] 	2043
scalar barabasi_100nodes_network.node[50].content_store 	decision_yes[50] 	2043
scalar barabasi_100nodes_network.node[50].content_store 	decision_no[50] 	0
scalar barabasi_100nodes_network.node[50].content_store 	decision_ratio[50] 	1
scalar barabasi_100nodes_network.node[51].core_layer 	interests[51] 	3267
scalar barabasi_100nodes_network.node[51].core_layer 	data[51] 	1980
scalar barabasi_100nodes_network.node[51].core_layer 	slots_sent[face$o[1]->client[51]] 	326700
scalar barabasi_100nodes_network.node[51].core_layer 	slots_sent[face$o[2]->node[23]] 	0
scalar barabasi_100nodes_network.node[51].content_store 	p_hit[51] 	0.39393939393939
scalar barabasi_100nodes_network.node[51].content_store 	hits[51] 	1287
scalar barabasi_100nodes_network.node[51].content_store 	misses[51] 	1980
scalar barabasi_100nodes_network.node[51].content_store 	decision_yes[51] 	1980
scalar barabasi_100nodes_network.node[51].content_store 	decision_no[51] 	0
scalar barabasi_100nodes_network.node[51].content_store 	decision_ratio[51] 	1
scalar barabasi_100nodes_network.node[52].core_layer 	interests[52] 	3234
[...]
scalar barabasi_100nodes_network.client[7] 	avg_time[7].real 	0
scalar barabasi_100nodes_network.client[8] 	hdistance[8].real 	1.353515625
scalar barabasi_100nodes_network.client[8] 	downloads[8].real 	3072
scalar barabasi_100nodes_network.client[8] 	avg_time[8].real 	0
scalar barabasi_100nodes_network.client[9] 	hdistance[9].real 	2.376882877344
scalar barabasi_100nodes_network.client[9] 	downloads[9].real 	3253
scalar barabasi_100nodes_network.client[9] 	avg_time[9].real 	0
scalar barabasi_100nodes_network.client[10] 	hdistance[10].real 	1.8167539267016
scalar barabasi_100nodes_network.client[10] 	downloads[10].real 	3247
scalar barabasi_100nodes_network.client[10] 	avg_time[10].real 	0
scalar barabasi_100nodes_network.client[11] 	hdistance[11].real 	1.8529319535905
scalar barabasi_100nodes_network.client[11] 	downloads[11].real 	3189
scalar barabasi_100nodes_network.client[11] 	avg_time[11].real 	0
scalar barabasi_100nodes_network.client[12] 	hdistance[12].real 	1.9365838113448
scalar barabasi_100nodes_network.client[12] 	downloads[12].real 	3138
scalar barabasi_100nodes_network.client[12] 	avg_time[12].real 	0
scalar barabasi_100nodes_network.client[13] 	hdistance[13].real 	1.2404453806801
scalar barabasi_100nodes_network.client[13] 	downloads[13].real 	3323
scalar barabasi_100nodes_network.client[13] 	avg_time[13].real 	0
scalar barabasi_100nodes_network.client[14] 	hdistance[14].real 	2.0050697084918
scalar barabasi_100nodes_network.client[14] 	downloads[14].real 	3156
scalar barabasi_100nodes_network.client[14] 	avg_time[14].real 	0
scalar barabasi_100nodes_network.client[15] 	hdistance[15].real 	1.8406445837064
scalar barabasi_100nodes_network.client[15] 	downloads[15].real 	3351
scalar barabasi_100nodes_network.client[15] 	avg_time[15].real 	0
scalar barabasi_100nodes_network.client[16] 	hdistance[16].real 	1.3434564809017
scalar barabasi_100nodes_network.client[16] 	downloads[16].real 	3194
scalar barabasi_100nodes_network.client[16] 	avg_time[16].real 	0
scalar barabasi_100nodes_network.client[17] 	hdistance[17].real 	2.0231767614339
scalar barabasi_100nodes_network.client[17] 	downloads[17].real 	3236
scalar barabasi_100nodes_network.client[17] 	avg_time[17].real 	0
scalar barabasi_100nodes_network.client[18] 	hdistance[18].real 	1.2178788849728
scalar barabasi_100nodes_network.client[18] 	downloads[18].real 	3121
scalar barabasi_100nodes_network.client[18] 	avg_time[18].real 	0
scalar barabasi_100nodes_network.client[19] 	hdistance[19].real 	1.8719951923077
scalar barabasi_100nodes_network.client[19] 	downloads[19].real 	3328
scalar barabasi_100nodes_network.client[19] 	avg_time[19].real 	0
scalar barabasi_100nodes_network.client[20] 	hdistance[20].real 	2.0364385297845
scalar barabasi_100nodes_network.client[20] 	downloads[20].real 	3156
scalar barabasi_100nodes_network.client[20] 	avg_time[20].real 	0
scalar barabasi_100nodes_network.client[21] 	hdistance[21].real 	1.8426896977175
scalar barabasi_100nodes_network.client[21] 	downloads[21].real 	3242
scalar barabasi_100nodes_network.client[21] 	avg_time[21].real 	0
scalar barabasi_100nodes_network.client[22] 	hdistance[22].real 	1.9598368371509
scalar barabasi_100nodes_network.client[22] 	downloads[22].real 	3187
scalar barabasi_100nodes_network.client[22] 	avg_time[22].real 	0
scalar barabasi_100nodes_network.client[23] 	hdistance[23].real 	1.4395846444305
scalar barabasi_100nodes_network.client[23] 	downloads[23].real 	3178
scalar barabasi_100nodes_network.client[23] 	avg_time[23].real 	0
scalar barabasi_100nodes_network.client[24] 	hdistance[24].real 	2.3734793187348
scalar barabasi_100nodes_network.client[24] 	downloads[24].real 	3288
scalar barabasi_100nodes_network.client[24] 	avg_time[24].real 	0
scalar barabasi_100nodes_network.client[25] 	hdistance[25].real 	1.439729397294
scalar barabasi_100nodes_network.client[25] 	downloads[25].real 	3252
scalar barabasi_100nodes_network.client[25] 	avg_time[25].real 	0
scalar barabasi_100nodes_network.client[26] 	hdistance[26].real 	1.4664804469274
scalar barabasi_100nodes_network.client[26] 	downloads[26].real 	3222
scalar barabasi_100nodes_network.client[26] 	avg_time[26].real 	0
scalar barabasi_100nodes_network.client[27] 	hdistance[27].real 	1.7633776678008
scalar barabasi_100nodes_network.client[27] 	downloads[27].real 	3233
scalar barabasi_100nodes_network.client[27] 	avg_time[27].real 	0
scalar barabasi_100nodes_network.client[28] 	hdistance[28].real 	1.878169449598
scalar barabasi_100nodes_network.client[28] 	downloads[28].real 	3234
scalar barabasi_100nodes_network.client[28] 	avg_time[28].real 	0
scalar barabasi_100nodes_network.client[29] 	hdistance[29].real 	1.3724474245657
scalar barabasi_100nodes_network.client[29] 	downloads[29].real 	3281
scalar barabasi_100nodes_network.client[29] 	avg_time[29].real 	0
scalar barabasi_100nodes_network.client[30] 	hdistance[30].real 	1.6582722346191
scalar barabasi_100nodes_network.client[30] 	downloads[30].real 	3137
scalar barabasi_100nodes_network.client[30] 	avg_time[30].real 	0
scalar barabasi_100nodes_network.client[31] 	hdistance[31].real 	1.760958688111
scalar barabasi_100nodes_network.client[31] 	downloads[31].real 	3171
scalar barabasi_100nodes_network.client[31] 	avg_time[31].real 	0
scalar barabasi_100nodes_network.client[32] 	hdistance[32].real 	1.4346070208139
scalar barabasi_100nodes_network.client[32] 	downloads[32].real 	3219
scalar barabasi_100nodes_network.client[32] 	avg_time[32].real 	0
scalar barabasi_100nodes_network.client[33] 	hdistance[33].real 	1.5112570356473
scalar barabasi_100nodes_network.client[33] 	downloads[33].real 	3198
scalar barabasi_100nodes_network.client[33] 	avg_time[33].real 	0
scalar barabasi_100nodes_network.client[34] 	hdistance[34].real 	1.4959003947768
scalar barabasi_100nodes_network.client[34] 	downloads[34].real 	3293
scalar barabasi_100nodes_network.client[34] 	avg_time[34].real 	0
scalar barabasi_100nodes_network.client[35] 	hdistance[35].real 	2.380550343965
scalar barabasi_100nodes_network.client[35] 	downloads[35].real 	3198
scalar barabasi_100nodes_network.client[35] 	avg_time[35].real 	0
scalar barabasi_100nodes_network.client[36] 	hdistance[36].real 	1.4305682163476
scalar barabasi_100nodes_network.client[36] 	downloads[36].real 	3291
scalar barabasi_100nodes_network.client[36] 	avg_time[36].real 	0
scalar barabasi_100nodes_network.client[37] 	hdistance[37].real 	1.9319388073681
scalar barabasi_100nodes_network.client[37] 	downloads[37].real 	3203
scalar barabasi_100nodes_network.client[37] 	avg_time[37].real 	0
scalar barabasi_100nodes_network.client[38] 	hdistance[38].real 	1.8375651041667
scalar barabasi_100nodes_network.client[38] 	downloads[38].real 	3072
scalar barabasi_100nodes_network.client[38] 	avg_time[38].real 	0
scalar barabasi_100nodes_network.client[39] 	hdistance[39].real 	1.94784
scalar barabasi_100nodes_network.client[39] 	downloads[39].real 	3125
scalar barabasi_100nodes_network.client[39] 	avg_time[39].real 	0
scalar barabasi_100nodes_network.client[40] 	hdistance[40].real 	2.4800864464341
scalar barabasi_100nodes_network.client[40] 	downloads[40].real 	3239
scalar barabasi_100nodes_network.client[40] 	avg_time[40].real 	0
scalar barabasi_100nodes_network.client[41] 	hdistance[41].real 	1.3921879961893
scalar barabasi_100nodes_network.client[41] 	downloads[41].real 	3149
scalar barabasi_100nodes_network.client[41] 	avg_time[41].real 	0
scalar barabasi_100nodes_network.client[42] 	hdistance[42].real 	2.0210660708586
scalar barabasi_100nodes_network.client[42] 	downloads[42].real 	3133
scalar barabasi_100nodes_network.client[42] 	avg_time[42].real 	0
scalar barabasi_100nodes_network.client[43] 	hdistance[43].real 	2.0903205918619
scalar barabasi_100nodes_network.client[43] 	downloads[43].real 	3244
scalar barabasi_100nodes_network.client[43] 	avg_time[43].real 	0
scalar barabasi_100nodes_network.client[44] 	hdistance[44].real 	1.9962299717248
scalar barabasi_100nodes_network.client[44] 	downloads[44].real 	3183
scalar barabasi_100nodes_network.client[44] 	avg_time[44].real 	0
scalar barabasi_100nodes_network.client[45] 	hdistance[45].real 	1.5398640296663
scalar barabasi_100nodes_network.client[45] 	downloads[45].real 	3236
scalar barabasi_100nodes_network.client[45] 	avg_time[45].real 	0
scalar barabasi_100nodes_network.client[46] 	hdistance[46].real 	1.9835910381824
scalar barabasi_100nodes_network.client[46] 	downloads[46].real 	3169
scalar barabasi_100nodes_network.client[46] 	avg_time[46].real 	0
scalar barabasi_100nodes_network.client[47] 	hdistance[47].real 	2.0440349781387
scalar barabasi_100nodes_network.client[47] 	downloads[47].real 	3202
scalar barabasi_100nodes_network.client[47] 	avg_time[47].real 	0
scalar barabasi_100nodes_network.client[48] 	hdistance[48].real 	2.1082236842105
scalar barabasi_100nodes_network.client[48] 	downloads[48].real 	3040
scalar barabasi_100nodes_network.client[48] 	avg_time[48].real 	0
scalar barabasi_100nodes_network.client[49] 	hdistance[49].real 	1.7216334164589
scalar barabasi_100nodes_network.client[49] 	downloads[49].real 	3208
scalar barabasi_100nodes_network.client[49] 	avg_time[49].real 	0
scalar barabasi_100nodes_network.client[50] 	hdistance[50].real 	3.0222087009431
scalar barabasi_100nodes_network.client[50] 	downloads[50].real 	3287
scalar barabasi_100nodes_network.client[50] 	avg_time[50].real 	0
scalar barabasi_100nodes_network.client[51] 	hdistance[51].real 	2.0174471992654
scalar barabasi_100nodes_network.client[51] 	downloads[51].real 	3267
scalar barabasi_100nodes_network.client[51] 	avg_time[51].real 	0
scalar barabasi_100nodes_network.client[52] 	hdistance[52].real 	1.8766233766234
scalar barabasi_100nodes_network.client[52] 	downloads[52].real 	3234
scalar barabasi_100nodes_network.client[52] 	avg_time[52].real 	0
scalar barabasi_100nodes_network.client[53] 	hdistance[53].real 	1.8759398496241
scalar barabasi_100nodes_network.client[53] 	downloads[53].real 	3192
scalar barabasi_100nodes_network.client[53] 	avg_time[53].real 	0
scalar barabasi_100nodes_network.client[54] 	hdistance[54].real 	1.6273483215276
scalar barabasi_100nodes_network.client[54] 	downloads[54].real 	3247
scalar barabasi_100nodes_network.client[54] 	avg_time[54].real 	0
scalar barabasi_100nodes_network.client[55] 	hdistance[55].real 	2.0064995357475
scalar barabasi_100nodes_network.client[55] 	downloads[55].real 	3231
scalar barabasi_100nodes_network.client[55] 	avg_time[55].real 	0
scalar barabasi_100nodes_network.client[56] 	hdistance[56].real 	2.406511627907
scalar barabasi_100nodes_network.client[56] 	downloads[56].real 	3225
scalar barabasi_100nodes_network.client[56] 	avg_time[56].real 	0
scalar barabasi_100nodes_network.client[57] 	hdistance[57].real 	2.4595943837754
scalar barabasi_100nodes_network.client[57] 	downloads[57].real 	3205
scalar barabasi_100nodes_network.client[57] 	avg_time[57].real 	0
scalar barabasi_100nodes_network.client[58] 	hdistance[58].real 	1.8414150655688
scalar barabasi_100nodes_network.client[58] 	downloads[58].real 	3279
scalar barabasi_100nodes_network.client[58] 	avg_time[58].real 	0
scalar barabasi_100nodes_network.client[59] 	hdistance[59].real 	1.4789522918616
scalar barabasi_100nodes_network.client[59] 	downloads[59].real 	3207
scalar barabasi_100nodes_network.client[59] 	avg_time[59].real 	0
scalar barabasi_100nodes_network.client[60] 	hdistance[60].real 	2.5548212676479
scalar barabasi_100nodes_network.client[60] 	downloads[60].real 	3329
scalar barabasi_100nodes_network.client[60] 	avg_time[60].real 	0
scalar barabasi_100nodes_network.client[61] 	hdistance[61].real 	1.9693567961165
scalar barabasi_100nodes_network.client[61] 	downloads[61].real 	3296
scalar barabasi_100nodes_network.client[61] 	avg_time[61].real 	0
scalar barabasi_100nodes_network.client[62] 	hdistance[62].real 	1.4316819185863
scalar barabasi_100nodes_network.client[62] 	downloads[62].real 	3169
scalar barabasi_100nodes_network.client[62] 	avg_time[62].real 	0
scalar barabasi_100nodes_network.client[63] 	hdistance[63].real 	2.5347441566646
scalar barabasi_100nodes_network.client[63] 	downloads[63].real 	3166
scalar barabasi_100nodes_network.client[63] 	avg_time[63].real 	0
scalar barabasi_100nodes_network.client[64] 	hdistance[64].real 	2.0586057988896
scalar barabasi_100nodes_network.client[64] 	downloads[64].real 	3242
scalar barabasi_100nodes_network.client[64] 	avg_time[64].real 	0
scalar barabasi_100nodes_network.client[65] 	hdistance[65].real 	1.8292529817954
scalar barabasi_100nodes_network.client[65] 	downloads[65].real 	3186
scalar barabasi_100nodes_network.client[65] 	avg_time[65].real 	0
scalar barabasi_100nodes_network.client[66] 	hdistance[66].real 	1.9626529298133
scalar barabasi_100nodes_network.client[66] 	downloads[66].real 	3106
scalar barabasi_100nodes_network.client[66] 	avg_time[66].real 	0
scalar barabasi_100nodes_network.client[67] 	hdistance[67].real 	1.7440846824408
scalar barabasi_100nodes_network.client[67] 	downloads[67].real 	3212
scalar barabasi_100nodes_network.client[67] 	avg_time[67].real 	0
scalar barabasi_100nodes_network.client[68] 	hdistance[68].real 	1.7907768492727
scalar barabasi_100nodes_network.client[68] 	downloads[68].real 	3231
scalar barabasi_100nodes_network.client[68] 	avg_time[68].real 	0
scalar barabasi_100nodes_network.client[69] 	hdistance[69].real 	2.0924102889806
scalar barabasi_100nodes_network.client[69] 	downloads[69].real 	3149
scalar barabasi_100nodes_network.client[69] 	avg_time[69].real 	0
scalar barabasi_100nodes_network.client[70] 	hdistance[70].real 	2.5058823529412
scalar barabasi_100nodes_network.client[70] 	downloads[70].real 	3230
scalar barabasi_100nodes_network.client[70] 	avg_time[70].real 	0
scalar barabasi_100nodes_network.client[71] 	hdistance[71].real 	2.4512080326326
scalar barabasi_100nodes_network.client[71] 	downloads[71].real 	3187
scalar barabasi_100nodes_network.client[71] 	avg_time[71].real 	0
scalar barabasi_100nodes_network.client[72] 	hdistance[72].real 	1.846835443038
scalar barabasi_100nodes_network.client[72] 	downloads[72].real 	3160
scalar barabasi_100nodes_network.client[72] 	avg_time[72].real 	0
scalar barabasi_100nodes_network.client[73] 	hdistance[73].real 	1.6211100417068
scalar barabasi_100nodes_network.client[73] 	downloads[73].real 	3117
scalar barabasi_100nodes_network.client[73] 	avg_time[73].real 	0
scalar barabasi_100nodes_network.client[74] 	hdistance[74].real 	1.6808252427184
scalar barabasi_100nodes_network.client[74] 	downloads[74].real 	3296
scalar barabasi_100nodes_network.client[74] 	avg_time[74].real 	0
scalar barabasi_100nodes_network.client[75] 	hdistance[75].real 	2.0650047333544
scalar barabasi_100nodes_network.client[75] 	downloads[75].real 	3169
scalar barabasi_100nodes_network.client[75] 	avg_time[75].real 	0
scalar barabasi_100nodes_network.client[76] 	hdistance[76].real 	2.0948725821308
scalar barabasi_100nodes_network.client[76] 	downloads[76].real 	3257
scalar barabasi_100nodes_network.client[76] 	avg_time[76].real 	0
scalar barabasi_100nodes_network.client[77] 	hdistance[77].real 	1.7856482907299
scalar barabasi_100nodes_network.client[77] 	downloads[77].real 	3247
scalar barabasi_100nodes_network.client[77] 	avg_time[77].real 	0
scalar barabasi_100nodes_network.client[78] 	hdistance[78].real 	1.597476340694
scalar barabasi_100nodes_network.client[78] 	downloads[78].real 	3170
scalar barabasi_100nodes_network.client[78] 	avg_time[78].real 	0
scalar barabasi_100nodes_network.client[79] 	hdistance[79].real 	1.5022349936143
scalar barabasi_100nodes_network.client[79] 	downloads[79].real 	3132
scalar barabasi_100nodes_network.client[79] 	avg_time[79].real 	0
scalar barabasi_100nodes_network.client[80] 	hdistance[80].real 	2.485766758494
scalar barabasi_100nodes_network.client[80] 	downloads[80].real 	3267
scalar barabasi_100nodes_network.client[80] 	avg_time[80].real 	0
scalar barabasi_100nodes_network.client[81] 	hdistance[81].real 	1.9923617476321
scalar barabasi_100nodes_network.client[81] 	downloads[81].real 	3273
scalar barabasi_100nodes_network.client[81] 	avg_time[81].real 	0
scalar barabasi_100nodes_network.client[82] 	hdistance[82].real 	2.6723456038941
scalar barabasi_100nodes_network.client[82] 	downloads[82].real 	3287
scalar barabasi_100nodes_network.client[82] 	avg_time[82].real 	0
scalar barabasi_100nodes_network.client[83] 	hdistance[83].real 	2.0803974706414
scalar barabasi_100nodes_network.client[83] 	downloads[83].real 	3321
scalar barabasi_100nodes_network.client[83] 	avg_time[83].real 	0
scalar barabasi_100nodes_network.client[84] 	hdistance[84].real 	1.7922446406053
scalar barabasi_100nodes_network.client[84] 	downloads[84].real 	3172
scalar barabasi_100nodes_network.client[84] 	avg_time[84].real 	0
scalar barabasi_100nodes_network.client[85] 	hdistance[85].real 	1.8203389830508
scalar barabasi_100nodes_network.client[85] 	downloads[85].real 	3245
scalar barabasi_100nodes_network.client[85] 	avg_time[85].real 	0
scalar barabasi_100nodes_network.client[86] 	hdistance[86].real 	1.9846437346437
scalar barabasi_100nodes_network.client[86] 	downloads[86].real 	3256
scalar barabasi_100nodes_network.client[86] 	avg_time[86].real 	0
scalar barabasi_100nodes_network.client[87] 	hdistance[87].real 	1.9562636676039
scalar barabasi_100nodes_network.client[87] 	downloads[87].real 	3201
scalar barabasi_100nodes_network.client[87] 	avg_time[87].real 	0
scalar barabasi_100nodes_network.client[88] 	hdistance[88].real 	1.9234434561626
scalar barabasi_100nodes_network.client[88] 	downloads[88].real 	3148
scalar barabasi_100nodes_network.client[88] 	avg_time[88].real 	0
scalar barabasi_100nodes_network.client[89] 	hdistance[89].real 	2.5405071119357
scalar barabasi_100nodes_network.client[89] 	downloads[89].real 	3234
scalar barabasi_100nodes_network.client[89] 	avg_time[89].real 	0
scalar barabasi_100nodes_network.client[90] 	hdistance[90].real 	1.7900432900433
scalar barabasi_100nodes_network.client[90] 	downloads[90].real 	3234
scalar barabasi_100nodes_network.client[90] 	avg_time[90].real 	0
scalar barabasi_100nodes_network.client[91] 	hdistance[91].real 	2.0590756045301
scalar barabasi_100nodes_network.client[91] 	downloads[91].real 	3267
scalar barabasi_100nodes_network.client[91] 	avg_time[91].real 	0
scalar barabasi_100nodes_network.client[92] 	hdistance[92].real 	2.2530978934325
scalar barabasi_100nodes_network.client[92] 	downloads[92].real 	3228
scalar barabasi_100nodes_network.client[92] 	avg_time[92].real 	0
scalar barabasi_100nodes_network.client[93] 	hdistance[93].real 	1.9000954502068
scalar barabasi_100nodes_network.client[93] 	downloads[93].real 	3143
scalar barabasi_100nodes_network.client[93] 	avg_time[93].real 	0
scalar barabasi_100nodes_network.client[94] 	hdistance[94].real 	2.5075827917054
scalar barabasi_100nodes_network.client[94] 	downloads[94].real 	3231
scalar barabasi_100nodes_network.client[94] 	avg_time[94].real 	0
scalar barabasi_100nodes_network.client[95] 	hdistance[95].real 	2.313352362829
scalar barabasi_100nodes_network.client[95] 	downloads[95].real 	3153
scalar barabasi_100nodes_network.client[95] 	avg_time[95].real 	0
scalar barabasi_100nodes_network.client[96] 	hdistance[96].real 	2.2509529860229
scalar barabasi_100nodes_network.client[96] 	downloads[96].real 	3148
scalar barabasi_100nodes_network.client[96] 	avg_time[96].real 	0
scalar barabasi_100nodes_network.client[97] 	hdistance[97].real 	2.1639901173564
scalar barabasi_100nodes_network.client[97] 	downloads[97].real 	3238
scalar barabasi_100nodes_network.client[97] 	avg_time[97].real 	0
scalar barabasi_100nodes_network.client[98] 	hdistance[98].real 	2.3427141963727
scalar barabasi_100nodes_network.client[98] 	downloads[98].real 	3198
scalar barabasi_100nodes_network.client[98] 	avg_time[98].real 	0
scalar barabasi_100nodes_network.client[99] 	hdistance[99].real 	2.4069802731411
scalar barabasi_100nodes_network.client[99] 	downloads[99].real 	3295
scalar barabasi_100nodes_network.client[99] 	avg_time[99].real 	0
