version 2
run General-1-20150722-12:17:08-21294
attr C 116667
attr D lce
attr F spr
attr R lru
attr a 1
attr brates 1
attr configname General
attr ctlg 1e6
attr datetime 20150722-12:17:08
attr experiment General
attr inifile omnetpp.ini
attr iterationvars "$net=barabasi_100nodes, $rep=1, $lambda=100, $a=1, $ctlg=1e6, $brates=1, $F=spr, $ttl=1000, $D=lce, $R=lru, $C=116667, $window=60, $variance=0.05, $mytime=1800"
attr iterationvars2 "$net=barabasi_100nodes, $rep=1, $lambda=100, $a=1, $ctlg=1e6, $brates=1, $F=spr, $ttl=1000, $D=lce, $R=lru, $C=116667, $window=60, $variance=0.05, $mytime=1800, $repetition=0"
attr lambda 100
attr measurement "$net=barabasi_100nodes, $rep=1, $lambda=100, $a=1, $ctlg=1e6, $brates=1, $F=spr, $ttl=1000, $D=lce, $R=lru, $C=116667, $window=60, $variance=0.05, $mytime=1800"
attr mytime 1800
attr net barabasi_100nodes
attr network networks.${net=barabasi_100nodes}_network
attr processid 21294
attr rep 1
attr repetition 0
attr replication #0
attr resultdir results
attr runnumber 1
attr seedset 1
attr ttl 1000
attr variance 0.05
attr window 60

scalar . 	C 	116667
scalar . 	a 	1
scalar . 	brates 	1
scalar . 	ctlg 	1e6
scalar . 	lambda 	100
scalar . 	mytime 	1800
scalar . 	rep 	1
scalar . 	ttl 	1000
scalar . 	variance 	0.05
scalar . 	window 	60
scalar barabasi_100nodes_network.content_distribution 	repo-0 	46
scalar barabasi_100nodes_network.content_distribution 	repo-1 	55
scalar barabasi_100nodes_network.content_distribution 	repo-2 	69
scalar barabasi_100nodes_network.content_distribution 	repo-3 	1
scalar barabasi_100nodes_network.content_distribution 	repo-4 	87
scalar barabasi_100nodes_network.content_distribution 	repo-5 	72
scalar barabasi_100nodes_network.content_distribution 	repo-6 	50
scalar barabasi_100nodes_network.content_distribution 	repo-7 	9
scalar barabasi_100nodes_network.content_distribution 	repo-8 	58
scalar barabasi_100nodes_network.content_distribution 	repo-9 	94
scalar barabasi_100nodes_network.content_distribution 	repo-10 	57
scalar barabasi_100nodes_network.content_distribution 	repo-11 	36
scalar barabasi_100nodes_network.content_distribution 	repo-12 	44
scalar barabasi_100nodes_network.content_distribution 	repo-13 	38
scalar barabasi_100nodes_network.content_distribution 	repo-14 	52
scalar barabasi_100nodes_network.content_distribution 	repo-15 	3
scalar barabasi_100nodes_network.content_distribution 	repo-16 	0
scalar barabasi_100nodes_network.content_distribution 	repo-17 	21
scalar barabasi_100nodes_network.content_distribution 	repo-18 	73
scalar barabasi_100nodes_network.content_distribution 	repo-19 	56
scalar barabasi_100nodes_network.content_distribution 	repo-20 	66
scalar barabasi_100nodes_network.content_distribution 	repo-21 	30
scalar barabasi_100nodes_network.content_distribution 	repo-22 	8
scalar barabasi_100nodes_network.content_distribution 	repo-23 	49
scalar barabasi_100nodes_network.content_distribution 	repo-24 	32
scalar barabasi_100nodes_network.content_distribution 	repo-25 	40
scalar barabasi_100nodes_network.content_distribution 	repo-26 	42
scalar barabasi_100nodes_network.content_distribution 	repo-27 	45
scalar barabasi_100nodes_network.content_distribution 	repo-28 	33
scalar barabasi_100nodes_network.content_distribution 	repo-29 	28
scalar barabasi_100nodes_network.content_distribution 	repo-30 	79
scalar barabasi_100nodes_network.content_distribution 	repo-31 	98
scalar barabasi_100nodes_network.content_distribution 	repo-32 	95
scalar barabasi_100nodes_network.content_distribution 	repo-33 	17
scalar barabasi_100nodes_network.content_distribution 	repo-34 	81
scalar barabasi_100nodes_network.content_distribution 	repo-35 	89
scalar barabasi_100nodes_network.content_distribution 	repo-36 	59
scalar barabasi_100nodes_network.content_distribution 	repo-37 	48
scalar barabasi_100nodes_network.content_distribution 	repo-38 	76
scalar barabasi_100nodes_network.content_distribution 	repo-39 	23
scalar barabasi_100nodes_network.content_distribution 	repo-40 	22
scalar barabasi_100nodes_network.content_distribution 	repo-41 	67
scalar barabasi_100nodes_network.content_distribution 	repo-42 	62
scalar barabasi_100nodes_network.content_distribution 	repo-43 	75
scalar barabasi_100nodes_network.content_distribution 	repo-44 	70
scalar barabasi_100nodes_network.content_distribution 	repo-45 	71
scalar barabasi_100nodes_network.content_distribution 	repo-46 	82
scalar barabasi_100nodes_network.content_distribution 	repo-47 	53
scalar barabasi_100nodes_network.content_distribution 	repo-48 	85
scalar barabasi_100nodes_network.content_distribution 	repo-49 	91
scalar barabasi_100nodes_network.content_distribution 	repo-50 	51
scalar barabasi_100nodes_network.content_distribution 	repo-51 	37
scalar barabasi_100nodes_network.content_distribution 	repo-52 	54
scalar barabasi_100nodes_network.content_distribution 	repo-53 	96
scalar barabasi_100nodes_network.content_distribution 	repo-54 	4
scalar barabasi_100nodes_network.content_distribution 	repo-55 	31
scalar barabasi_100nodes_network.content_distribution 	repo-56 	78
scalar barabasi_100nodes_network.content_distribution 	repo-57 	68
scalar barabasi_100nodes_network.content_distribution 	repo-58 	39
scalar barabasi_100nodes_network.content_distribution 	repo-59 	27
scalar barabasi_100nodes_network.content_distribution 	repo-60 	97
scalar barabasi_100nodes_network.content_distribution 	repo-61 	60
scalar barabasi_100nodes_network.content_distribution 	repo-62 	43
scalar barabasi_100nodes_network.content_distribution 	repo-63 	86
scalar barabasi_100nodes_network.content_distribution 	repo-64 	15
scalar barabasi_100nodes_network.content_distribution 	repo-65 	13
scalar barabasi_100nodes_network.content_distribution 	repo-66 	10
scalar barabasi_100nodes_network.content_distribution 	repo-67 	7
scalar barabasi_100nodes_network.content_distribution 	repo-68 	63
scalar barabasi_100nodes_network.content_distribution 	repo-69 	64
scalar barabasi_100nodes_network.content_distribution 	repo-70 	35
scalar barabasi_100nodes_network.content_distribution 	repo-71 	65
scalar barabasi_100nodes_network.content_distribution 	repo-72 	74
scalar barabasi_100nodes_network.content_distribution 	repo-73 	20
scalar barabasi_100nodes_network.content_distribution 	repo-74 	80
scalar barabasi_100nodes_network.content_distribution 	repo-75 	41
scalar barabasi_100nodes_network.content_distribution 	repo-76 	25
scalar barabasi_100nodes_network.content_distribution 	repo-77 	5
scalar barabasi_100nodes_network.content_distribution 	repo-78 	24
scalar barabasi_100nodes_network.content_distribution 	repo-79 	29
scalar barabasi_100nodes_network.content_distribution 	repo-80 	93
scalar barabasi_100nodes_network.content_distribution 	repo-81 	61
scalar barabasi_100nodes_network.content_distribution 	repo-82 	2
scalar barabasi_100nodes_network.content_distribution 	repo-83 	19
scalar barabasi_100nodes_network.content_distribution 	repo-84 	99
scalar barabasi_100nodes_network.content_distribution 	repo-85 	16
scalar barabasi_100nodes_network.content_distribution 	repo-86 	90
scalar barabasi_100nodes_network.content_distribution 	repo-87 	77
scalar barabasi_100nodes_network.content_distribution 	repo-88 	12
scalar barabasi_100nodes_network.content_distribution 	repo-89 	26
scalar barabasi_100nodes_network.content_distribution 	repo-90 	34
scalar barabasi_100nodes_network.content_distribution 	repo-91 	88
scalar barabasi_100nodes_network.content_distribution 	repo-92 	18
scalar barabasi_100nodes_network.content_distribution 	repo-93 	83
scalar barabasi_100nodes_network.content_distribution 	repo-94 	84
scalar barabasi_100nodes_network.content_distribution 	repo-95 	92
scalar barabasi_100nodes_network.content_distribution 	repo-96 	14
scalar barabasi_100nodes_network.content_distribution 	repo-97 	6
scalar barabasi_100nodes_network.content_distribution 	repo-98 	47
scalar barabasi_100nodes_network.content_distribution 	repo-99 	11
scalar barabasi_100nodes_network.content_distribution 	client-0 	3
scalar barabasi_100nodes_network.content_distribution 	client-1 	71
scalar barabasi_100nodes_network.content_distribution 	client-2 	78
scalar barabasi_100nodes_network.content_distribution 	client-3 	12
scalar barabasi_100nodes_network.content_distribution 	client-4 	7
scalar barabasi_100nodes_network.content_distribution 	client-5 	81
scalar barabasi_100nodes_network.content_distribution 	client-6 	86
scalar barabasi_100nodes_network.content_distribution 	client-7 	80
scalar barabasi_100nodes_network.content_distribution 	client-8 	79
scalar barabasi_100nodes_network.content_distribution 	client-9 	64
scalar barabasi_100nodes_network.content_distribution 	client-10 	10
scalar barabasi_100nodes_network.content_distribution 	client-11 	31
scalar barabasi_100nodes_network.content_distribution 	client-12 	45
scalar barabasi_100nodes_network.content_distribution 	client-13 	39
scalar barabasi_100nodes_network.content_distribution 	client-14 	84
scalar barabasi_100nodes_network.content_distribution 	client-15 	95
scalar barabasi_100nodes_network.content_distribution 	client-16 	48
scalar barabasi_100nodes_network.content_distribution 	client-17 	29
scalar barabasi_100nodes_network.content_distribution 	client-18 	43
scalar barabasi_100nodes_network.content_distribution 	client-19 	0
scalar barabasi_100nodes_network.content_distribution 	client-20 	8
scalar barabasi_100nodes_network.content_distribution 	client-21 	57
scalar barabasi_100nodes_network.content_distribution 	client-22 	38
scalar barabasi_100nodes_network.content_distribution 	client-23 	90
scalar barabasi_100nodes_network.content_distribution 	client-24 	54
scalar barabasi_100nodes_network.content_distribution 	client-25 	24
scalar barabasi_100nodes_network.content_distribution 	client-26 	52
scalar barabasi_100nodes_network.content_distribution 	client-27 	67
scalar barabasi_100nodes_network.content_distribution 	client-28 	44
scalar barabasi_100nodes_network.content_distribution 	client-29 	82
scalar barabasi_100nodes_network.content_distribution 	client-30 	14
scalar barabasi_100nodes_network.content_distribution 	client-31 	49
scalar barabasi_100nodes_network.content_distribution 	client-32 	6
scalar barabasi_100nodes_network.content_distribution 	client-33 	91
scalar barabasi_100nodes_network.content_distribution 	client-34 	60
scalar barabasi_100nodes_network.content_distribution 	client-35 	75
scalar barabasi_100nodes_network.content_distribution 	client-36 	59
scalar barabasi_100nodes_network.content_distribution 	client-37 	32
scalar barabasi_100nodes_network.content_distribution 	client-38 	15
scalar barabasi_100nodes_network.content_distribution 	client-39 	85
scalar barabasi_100nodes_network.content_distribution 	client-40 	62
scalar barabasi_100nodes_network.content_distribution 	client-41 	16
scalar barabasi_100nodes_network.content_distribution 	client-42 	21
scalar barabasi_100nodes_network.content_distribution 	client-43 	70
scalar barabasi_100nodes_network.content_distribution 	client-44 	5
scalar barabasi_100nodes_network.content_distribution 	client-45 	65
scalar barabasi_100nodes_network.content_distribution 	client-46 	30
scalar barabasi_100nodes_network.content_distribution 	client-47 	35
scalar barabasi_100nodes_network.content_distribution 	client-48 	46
scalar barabasi_100nodes_network.content_distribution 	client-49 	55
scalar barabasi_100nodes_network.content_distribution 	client-50 	2
scalar barabasi_100nodes_network.content_distribution 	client-51 	88
scalar barabasi_100nodes_network.content_distribution 	client-52 	41
scalar barabasi_100nodes_network.content_distribution 	client-53 	93
scalar barabasi_100nodes_network.content_distribution 	client-54 	69
scalar barabasi_100nodes_network.content_distribution 	client-55 	94
scalar barabasi_100nodes_network.content_distribution 	client-56 	56
scalar barabasi_100nodes_network.content_distribution 	client-57 	11
scalar barabasi_100nodes_network.content_distribution 	client-58 	22
scalar barabasi_100nodes_network.content_distribution 	client-59 	68
scalar barabasi_100nodes_network.content_distribution 	client-60 	97
scalar barabasi_100nodes_network.content_distribution 	client-61 	37
scalar barabasi_100nodes_network.content_distribution 	client-62 	9
scalar barabasi_100nodes_network.content_distribution 	client-63 	28
scalar barabasi_100nodes_network.content_distribution 	client-64 	83
scalar barabasi_100nodes_network.content_distribution 	client-65 	50
scalar barabasi_100nodes_network.content_distribution 	client-66 	61
scalar barabasi_100nodes_network.content_distribution 	client-67 	26
scalar barabasi_100nodes_network.content_distribution 	client-68 	53
scalar barabasi_100nodes_network.content_distribution 	client-69 	1
scalar barabasi_100nodes_network.content_distribution 	client-70 	73
scalar barabasi_100nodes_network.content_distribution 	client-71 	92
scalar barabasi_100nodes_network.content_distribution 	client-72 	72
scalar barabasi_100nodes_network.content_distribution 	client-73 	40
scalar barabasi_100nodes_network.content_distribution 	client-74 	87
scalar barabasi_100nodes_network.content_distribution 	client-75 	66
scalar barabasi_100nodes_network.content_distribution 	client-76 	42
scalar barabasi_100nodes_network.content_distribution 	client-77 	89
scalar barabasi_100nodes_network.content_distribution 	client-78 	96
scalar barabasi_100nodes_network.content_distribution 	client-79 	47
scalar barabasi_100nodes_network.content_distribution 	client-80 	18
scalar barabasi_100nodes_network.content_distribution 	client-81 	33
scalar barabasi_100nodes_network.content_distribution 	client-82 	17
scalar barabasi_100nodes_network.content_distribution 	client-83 	51
scalar barabasi_100nodes_network.content_distribution 	client-84 	34
scalar barabasi_100nodes_network.content_distribution 	client-85 	4
scalar barabasi_100nodes_network.content_distribution 	client-86 	76
scalar barabasi_100nodes_network.content_distribution 	client-87 	13
scalar barabasi_100nodes_network.content_distribution 	client-88 	36
scalar barabasi_100nodes_network.content_distribution 	client-89 	58
scalar barabasi_100nodes_network.content_distribution 	client-90 	74
scalar barabasi_100nodes_network.content_distribution 	client-91 	23
scalar barabasi_100nodes_network.content_distribution 	client-92 	25
scalar barabasi_100nodes_network.content_distribution 	client-93 	77
scalar barabasi_100nodes_network.content_distribution 	client-94 	98
scalar barabasi_100nodes_network.content_distribution 	client-95 	27
scalar barabasi_100nodes_network.content_distribution 	client-96 	99
scalar barabasi_100nodes_network.content_distribution 	client-97 	19
scalar barabasi_100nodes_network.content_distribution 	client-98 	20
scalar barabasi_100nodes_network.content_distribution 	client-99 	63
scalar barabasi_100nodes_network.content_distribution 	repo-0_card 	249719
scalar barabasi_100nodes_network.content_distribution 	repo-0_price 	0
scalar barabasi_100nodes_network.content_distribution 	repo-1_card 	249423
scalar barabasi_100nodes_network.content_distribution 	repo-1_price 	0
scalar barabasi_100nodes_network.content_distribution 	repo-2_card 	249931
scalar barabasi_100nodes_network.content_distribution 	repo-2_price 	0
scalar barabasi_100nodes_network.content_distribution 	repo-3_card 	250927
scalar barabasi_100nodes_network.content_distribution 	repo-3_price 	0
scalar barabasi_100nodes_network.content_distribution 	repo-4_card 	0
scalar barabasi_100nodes_network.content_distribution 	repo-4_price 	0
scalar barabasi_100nodes_network.content_distribution 	repo-5_card 	0
scalar barabasi_100nodes_network.content_distribution 	repo-5_price 	0
scalar barabasi_100nodes_network.content_distribution 	repo-6_card 	0
scalar barabasi_100nodes_network.content_distribution 	repo-6_price 	0
scalar barabasi_100nodes_network.content_distribution 	repo-7_card 	0
scalar barabasi_100nodes_network.content_distribution 	repo-7_price 	0
scalar barabasi_100nodes_network.content_distribution 	repo-8_card 	0
scalar barabasi_100nodes_network.content_distribution 	repo-8_price 	0
scalar barabasi_100nodes_network.content_distribution 	repo-9_card 	0
scalar barabasi_100nodes_network.content_distribution 	repo-9_price 	0
scalar barabasi_100nodes_network.content_distribution 	repo-10_card 	0
scalar barabasi_100nodes_network.content_distribution 	repo-10_price 	0
scalar barabasi_100nodes_network.content_distribution 	repo-11_card 	0
scalar barabasi_100nodes_network.content_distribution 	repo-11_price 	0
scalar barabasi_100nodes_network.content_distribution 	repo-12_card 	0
scalar barabasi_100nodes_network.content_distribution 	repo-12_price 	0
scalar barabasi_100nodes_network.content_distribution 	repo-13_card 	0
scalar barabasi_100nodes_network.content_distribution 	repo-13_price 	0
scalar barabasi_100nodes_network.content_distribution 	repo-14_card 	0
scalar barabasi_100nodes_network.content_distribution 	repo-14_price 	0
scalar barabasi_100nodes_network.content_distribution 	repo-15_card 	0
scalar barabasi_100nodes_network.content_distribution 	repo-15_price 	0
scalar barabasi_100nodes_network.content_distribution 	repo-16_card 	0
scalar barabasi_100nodes_network.content_distribution 	repo-16_price 	0
scalar barabasi_100nodes_network.content_distribution 	repo-17_card 	0
scalar barabasi_100nodes_network.content_distribution 	repo-17_price 	0
scalar barabasi_100nodes_network.content_distribution 	repo-18_card 	0
scalar barabasi_100nodes_network.content_distribution 	repo-18_price 	0
scalar barabasi_100nodes_network.content_distribution 	repo-19_card 	0
scalar barabasi_100nodes_network.content_distribution 	repo-19_price 	0
scalar barabasi_100nodes_network.content_distribution 	repo-20_card 	0
scalar barabasi_100nodes_network.content_distribution 	repo-20_price 	0
scalar barabasi_100nodes_network.content_distribution 	repo-21_card 	0
scalar barabasi_100nodes_network.content_distribution 	repo-21_price 	0
scalar barabasi_100nodes_network.content_distribution 	repo-22_card 	0
scalar barabasi_100nodes_network.content_distribution 	repo-22_price 	0
scalar barabasi_100nodes_network.content_distribution 	repo-23_card 	0
scalar barabasi_100nodes_network.content_distribution 	repo-23_price 	0
scalar barabasi_100nodes_network.content_distribution 	repo-24_card 	0
scalar barabasi_100nodes_network.content_distribution 	repo-24_price 	0
scalar barabasi_100nodes_network.content_distribution 	repo-25_card 	0
scalar barabasi_100nodes_network.content_distribution 	repo-25_price 	0
scalar barabasi_100nodes_network.content_distribution 	repo-26_card 	0
scalar barabasi_100nodes_network.content_distribution 	repo-26_price 	0
scalar barabasi_100nodes_network.content_distribution 	repo-27_card 	0
scalar barabasi_100nodes_network.content_distribution 	repo-27_price 	0
scalar barabasi_100nodes_network.content_distribution 	repo-28_card 	0
scalar barabasi_100nodes_network.content_distribution 	repo-28_price 	0
scalar barabasi_100nodes_network.content_distribution 	repo-29_card 	0
scalar barabasi_100nodes_network.content_distribution 	repo-29_price 	0
scalar barabasi_100nodes_network.content_distribution 	repo-30_card 	0
scalar barabasi_100nodes_network.content_distribution 	repo-30_price 	0
scalar barabasi_100nodes_network.content_distribution 	repo-31_card 	0
scalar barabasi_100nodes_network.content_distribution 	repo-31_price 	0
scalar barabasi_100nodes_network.content_distribution 	repo-32_card 	0
scalar barabasi_100nodes_network.content_distribution 	repo-32_price 	0
scalar barabasi_100nodes_network.content_distribution 	repo-33_card 	0
scalar barabasi_100nodes_network.content_distribution 	repo-33_price 	0
scalar barabasi_100nodes_network.content_distribution 	repo-34_card 	0
scalar barabasi_100nodes_network.content_distribution 	repo-34_price 	0
scalar barabasi_100nodes_network.content_distribution 	repo-35_card 	0
scalar barabasi_100nodes_network.content_distribution 	repo-35_price 	0
scalar barabasi_100nodes_network.content_distribution 	repo-36_card 	0
scalar barabasi_100nodes_network.content_distribution 	repo-36_price 	0
scalar barabasi_100nodes_network.content_distribution 	repo-37_card 	0
scalar barabasi_100nodes_network.content_distribution 	repo-37_price 	0
scalar barabasi_100nodes_network.content_distribution 	repo-38_card 	0
scalar barabasi_100nodes_network.content_distribution 	repo-38_price 	0
scalar barabasi_100nodes_network.content_distribution 	repo-39_card 	0
scalar barabasi_100nodes_network.content_distribution 	repo-39_price 	0
scalar barabasi_100nodes_network.content_distribution 	repo-40_card 	0
scalar barabasi_100nodes_network.content_distribution 	repo-40_price 	0
scalar barabasi_100nodes_network.content_distribution 	repo-41_card 	0
scalar barabasi_100nodes_network.content_distribution 	repo-41_price 	0
scalar barabasi_100nodes_network.content_distribution 	repo-42_card 	0
scalar barabasi_100nodes_network.content_distribution 	repo-42_price 	0
scalar barabasi_100nodes_network.content_distribution 	repo-43_card 	0
scalar barabasi_100nodes_network.content_distribution 	repo-43_price 	0
scalar barabasi_100nodes_network.content_distribution 	repo-44_card 	0
scalar barabasi_100nodes_network.content_distribution 	repo-44_price 	0
scalar barabasi_100nodes_network.content_distribution 	repo-45_card 	0
scalar barabasi_100nodes_network.content_distribution 	repo-45_price 	0
scalar barabasi_100nodes_network.content_distribution 	repo-46_card 	0
scalar barabasi_100nodes_network.content_distribution 	repo-46_price 	0
scalar barabasi_100nodes_network.content_distribution 	repo-47_card 	0
scalar barabasi_100nodes_network.content_distribution 	repo-47_price 	0
scalar barabasi_100nodes_network.content_distribution 	repo-48_card 	0
scalar barabasi_100nodes_network.content_distribution 	repo-48_price 	0
scalar barabasi_100nodes_network.content_distribution 	repo-49_card 	0
scalar barabasi_100nodes_network.content_distribution 	repo-49_price 	0
scalar barabasi_100nodes_network.content_distribution 	repo-50_card 	0
scalar barabasi_100nodes_network.content_distribution 	repo-50_price 	0
scalar barabasi_100nodes_network.content_distribution 	repo-51_card 	0
scalar barabasi_100nodes_network.content_distribution 	repo-51_price 	0
scalar barabasi_100nodes_network.content_distribution 	repo-52_card 	0
scalar barabasi_100nodes_network.content_distribution 	repo-52_price 	0
scalar barabasi_100nodes_network.content_distribution 	repo-53_card 	0
scalar barabasi_100nodes_network.content_distribution 	repo-53_price 	0
scalar barabasi_100nodes_network.content_distribution 	repo-54_card 	0
scalar barabasi_100nodes_network.content_distribution 	repo-54_price 	0
scalar barabasi_100nodes_network.content_distribution 	repo-55_card 	0
scalar barabasi_100nodes_network.content_distribution 	repo-55_price 	0
scalar barabasi_100nodes_network.content_distribution 	repo-56_card 	0
scalar barabasi_100nodes_network.content_distribution 	repo-56_price 	0
scalar barabasi_100nodes_network.content_distribution 	repo-57_card 	0
scalar barabasi_100nodes_network.content_distribution 	repo-57_price 	0
scalar barabasi_100nodes_network.content_distribution 	repo-58_card 	0
scalar barabasi_100nodes_network.content_distribution 	repo-58_price 	0
scalar barabasi_100nodes_network.content_distribution 	repo-59_card 	0
scalar barabasi_100nodes_network.content_distribution 	repo-59_price 	0
scalar barabasi_100nodes_network.content_distribution 	repo-60_card 	0
scalar barabasi_100nodes_network.content_distribution 	repo-60_price 	0
scalar barabasi_100nodes_network.content_distribution 	repo-61_card 	0
scalar barabasi_100nodes_network.content_distribution 	repo-61_price 	0
scalar barabasi_100nodes_network.content_distribution 	repo-62_card 	0
scalar barabasi_100nodes_network.content_distribution 	repo-62_price 	0
scalar barabasi_100nodes_network.content_distribution 	repo-63_card 	0
scalar barabasi_100nodes_network.content_distribution 	repo-63_price 	0
scalar barabasi_100nodes_network.content_distribution 	repo-64_card 	0
scalar barabasi_100nodes_network.content_distribution 	repo-64_price 	0
scalar barabasi_100nodes_network.content_distribution 	repo-65_card 	0
scalar barabasi_100nodes_network.content_distribution 	repo-65_price 	0
scalar barabasi_100nodes_network.content_distribution 	repo-66_card 	0
scalar barabasi_100nodes_network.content_distribution 	repo-66_price 	0
scalar barabasi_100nodes_network.content_distribution 	repo-67_card 	0
scalar barabasi_100nodes_network.content_distribution 	repo-67_price 	0
scalar barabasi_100nodes_network.content_distribution 	repo-68_card 	0
scalar barabasi_100nodes_network.content_distribution 	repo-68_price 	0
scalar barabasi_100nodes_network.content_distribution 	repo-69_card 	0
scalar barabasi_100nodes_network.content_distribution 	repo-69_price 	0
scalar barabasi_100nodes_network.content_distribution 	repo-70_card 	0
scalar barabasi_100nodes_network.content_distribution 	repo-70_price 	0
scalar barabasi_100nodes_network.content_distribution 	repo-71_card 	0
scalar barabasi_100nodes_network.content_distribution 	repo-71_price 	0
scalar barabasi_100nodes_network.content_distribution 	repo-72_card 	0
scalar barabasi_100nodes_network.content_distribution 	repo-72_price 	0
scalar barabasi_100nodes_network.content_distribution 	repo-73_card 	0
scalar barabasi_100nodes_network.content_distribution 	repo-73_price 	0
scalar barabasi_100nodes_network.content_distribution 	repo-74_card 	0
scalar barabasi_100nodes_network.content_distribution 	repo-74_price 	0
scalar barabasi_100nodes_network.content_distribution 	repo-75_card 	0
scalar barabasi_100nodes_network.content_distribution 	repo-75_price 	0
scalar barabasi_100nodes_network.content_distribution 	repo-76_card 	0
scalar barabasi_100nodes_network.content_distribution 	repo-76_price 	0
scalar barabasi_100nodes_network.content_distribution 	repo-77_card 	0
scalar barabasi_100nodes_network.content_distribution 	repo-77_price 	0
scalar barabasi_100nodes_network.content_distribution 	repo-78_card 	0
scalar barabasi_100nodes_network.content_distribution 	repo-78_price 	0
scalar barabasi_100nodes_network.content_distribution 	repo-79_card 	0
scalar barabasi_100nodes_network.content_distribution 	repo-79_price 	0
scalar barabasi_100nodes_network.content_distribution 	repo-80_card 	0
scalar barabasi_100nodes_network.content_distribution 	repo-80_price 	0
scalar barabasi_100nodes_network.content_distribution 	repo-81_card 	0
scalar barabasi_100nodes_network.content_distribution 	repo-81_price 	0
scalar barabasi_100nodes_network.content_distribution 	repo-82_card 	0
scalar barabasi_100nodes_network.content_distribution 	repo-82_price 	0
scalar barabasi_100nodes_network.content_distribution 	repo-83_card 	0
scalar barabasi_100nodes_network.content_distribution 	repo-83_price 	0
scalar barabasi_100nodes_network.content_distribution 	repo-84_card 	0
scalar barabasi_100nodes_network.content_distribution 	repo-84_price 	0
scalar barabasi_100nodes_network.content_distribution 	repo-85_card 	0
scalar barabasi_100nodes_network.content_distribution 	repo-85_price 	0
scalar barabasi_100nodes_network.content_distribution 	repo-86_card 	0
scalar barabasi_100nodes_network.content_distribution 	repo-86_price 	0
scalar barabasi_100nodes_network.content_distribution 	repo-87_card 	0
scalar barabasi_100nodes_network.content_distribution 	repo-87_price 	0
scalar barabasi_100nodes_network.content_distribution 	repo-88_card 	0
scalar barabasi_100nodes_network.content_distribution 	repo-88_price 	0
scalar barabasi_100nodes_network.content_distribution 	repo-89_card 	0
scalar barabasi_100nodes_network.content_distribution 	repo-89_price 	0
scalar barabasi_100nodes_network.content_distribution 	repo-90_card 	0
scalar barabasi_100nodes_network.content_distribution 	repo-90_price 	0
scalar barabasi_100nodes_network.content_distribution 	repo-91_card 	0
scalar barabasi_100nodes_network.content_distribution 	repo-91_price 	0
scalar barabasi_100nodes_network.content_distribution 	repo-92_card 	0
scalar barabasi_100nodes_network.content_distribution 	repo-92_price 	0
scalar barabasi_100nodes_network.content_distribution 	repo-93_card 	0
scalar barabasi_100nodes_network.content_distribution 	repo-93_price 	0
scalar barabasi_100nodes_network.content_distribution 	repo-94_card 	0
scalar barabasi_100nodes_network.content_distribution 	repo-94_price 	0
scalar barabasi_100nodes_network.content_distribution 	repo-95_card 	0
scalar barabasi_100nodes_network.content_distribution 	repo-95_price 	0
scalar barabasi_100nodes_network.content_distribution 	repo-96_card 	0
scalar barabasi_100nodes_network.content_distribution 	repo-96_price 	0
scalar barabasi_100nodes_network.content_distribution 	repo-97_card 	0
scalar barabasi_100nodes_network.content_distribution 	repo-97_price 	0
scalar barabasi_100nodes_network.content_distribution 	repo-98_card 	0
scalar barabasi_100nodes_network.content_distribution 	repo-98_price 	0
scalar barabasi_100nodes_network.content_distribution 	repo-99_card 	0
scalar barabasi_100nodes_network.content_distribution 	repo-99_price 	0
scalar barabasi_100nodes_network.statistics 	p_hit 	0.25691881422821
scalar barabasi_100nodes_network.statistics 	interests 	8369.57
scalar barabasi_100nodes_network.statistics 	data 	5111.07
scalar barabasi_100nodes_network.statistics 	hdistance 	1.9088435869331
scalar barabasi_100nodes_network.statistics 	avg_time 	0
scalar barabasi_100nodes_network.statistics 	downloads 	325850
scalar barabasi_100nodes_network.statistics 	total_cost 	0
scalar barabasi_100nodes_network.statistics 	total_replicas 	1000000
scalar barabasi_100nodes_network.statistics 	"representations_downloaded 1:" 	0
scalar barabasi_100nodes_network.statistics 	"slots_per_representation 100:" 	0
scalar barabasi_100nodes_network.statistics 	inner_hit 	0.65990486420132
scalar barabasi_100nodes_network.statistics 	execution_time 	23
scalar barabasi_100nodes_network.node[0].core_layer 	interests[0] 	60249
scalar barabasi_100nodes_network.node[0].core_layer 	data[0] 	43188
scalar barabasi_100nodes_network.node[0].core_layer 	slots_sent[face$o[1]->client[0]] 	318400
scalar barabasi_100nodes_network.node[0].core_layer 	slots_sent[face$o[2]->node[1]] 	145200
scalar barabasi_100nodes_network.node[0].core_layer 	slots_sent[face$o[3]->node[2]] 	1619200
scalar barabasi_100nodes_network.node[0].core_layer 	slots_sent[face$o[4]->node[5]] 	667600
scalar barabasi_100nodes_network.node[0].core_layer 	slots_sent[face$o[5]->node[10]] 	274600
scalar barabasi_100nodes_network.node[0].core_layer 	slots_sent[face$o[6]->node[11]] 	157000
scalar barabasi_100nodes_network.node[0].core_layer 	slots_sent[face$o[7]->node[15]] 	390300
scalar barabasi_100nodes_network.node[0].core_layer 	slots_sent[face$o[8]->node[21]] 	517700
scalar barabasi_100nodes_network.node[0].core_layer 	slots_sent[face$o[9]->node[22]] 	197800
scalar barabasi_100nodes_network.node[0].core_layer 	slots_sent[face$o[10]->node[28]] 	206600
scalar barabasi_100nodes_network.node[0].core_layer 	slots_sent[face$o[11]->node[37]] 	195500
scalar barabasi_100nodes_network.node[0].core_layer 	slots_sent[face$o[12]->node[44]] 	194100
scalar barabasi_100nodes_network.node[0].core_layer 	slots_sent[face$o[13]->node[58]] 	371400
scalar barabasi_100nodes_network.node[0].core_layer 	slots_sent[face$o[14]->node[73]] 	372200
scalar barabasi_100nodes_network.node[0].core_layer 	slots_sent[face$o[15]->node[74]] 	196500
scalar barabasi_100nodes_network.node[0].core_layer 	slots_sent[face$o[16]->node[93]] 	200800
scalar barabasi_100nodes_network.node[0].content_store 	p_hit[0] 	0.28317482447841
scalar barabasi_100nodes_network.node[0].content_store 	hits[0] 	17061
scalar barabasi_100nodes_network.node[0].content_store 	misses[0] 	43188
scalar barabasi_100nodes_network.node[0].content_store 	decision_yes[0] 	43188
scalar barabasi_100nodes_network.node[0].content_store 	decision_no[0] 	0
scalar barabasi_100nodes_network.node[0].content_store 	decision_ratio[0] 	1
scalar barabasi_100nodes_network.node[1].core_layer 	interests[1] 	24075
scalar barabasi_100nodes_network.node[1].core_layer 	repo_load[1] 	21828
scalar barabasi_100nodes_network.node[1].core_layer 	data[1] 	1452
scalar barabasi_100nodes_network.node[1].core_layer 	slots_sent[face$o[1]->client[1]] 	320800
scalar barabasi_100nodes_network.node[1].core_layer 	slots_sent[face$o[2]->node[0]] 	2086700
scalar barabasi_100nodes_network.node[1].content_store 	p_hit[1] 	0.033021806853583
scalar barabasi_100nodes_network.node[1].content_store 	hits[1] 	795
scalar barabasi_100nodes_network.node[1].content_store 	misses[1] 	23280
scalar barabasi_100nodes_network.node[1].content_store 	decision_yes[1] 	1452
scalar barabasi_100nodes_network.node[1].content_store 	decision_no[1] 	21828
scalar barabasi_100nodes_network.node[1].content_store 	decision_ratio[1] 	0.062371134020619
scalar barabasi_100nodes_network.node[2].core_layer 	interests[2] 	126349
scalar barabasi_100nodes_network.node[2].core_layer 	data[2] 	79674
scalar barabasi_100nodes_network.node[2].core_layer 	slots_sent[face$o[1]->client[2]] 	323900
scalar barabasi_100nodes_network.node[2].core_layer 	slots_sent[face$o[2]->node[0]] 	2232100
scalar barabasi_100nodes_network.node[2].core_layer 	slots_sent[face$o[3]->node[3]] 	363000
scalar barabasi_100nodes_network.node[2].core_layer 	slots_sent[face$o[4]->node[4]] 	956200
scalar barabasi_100nodes_network.node[2].core_layer 	slots_sent[face$o[5]->node[6]] 	147000
scalar barabasi_100nodes_network.node[2].core_layer 	slots_sent[face$o[6]->node[7]] 	949500
scalar barabasi_100nodes_network.node[2].core_layer 	slots_sent[face$o[7]->node[8]] 	1172700
scalar barabasi_100nodes_network.node[2].core_layer 	slots_sent[face$o[8]->node[13]] 	573400
scalar barabasi_100nodes_network.node[2].core_layer 	slots_sent[face$o[9]->node[16]] 	1056100
scalar barabasi_100nodes_network.node[2].core_layer 	slots_sent[face$o[10]->node[18]] 	678600
scalar barabasi_100nodes_network.node[2].core_layer 	slots_sent[face$o[11]->node[25]] 	358300
scalar barabasi_100nodes_network.node[2].core_layer 	slots_sent[face$o[12]->node[26]] 	664200
scalar barabasi_100nodes_network.node[2].core_layer 	slots_sent[face$o[13]->node[29]] 	198700
scalar barabasi_100nodes_network.node[2].core_layer 	slots_sent[face$o[14]->node[32]] 	517900
scalar barabasi_100nodes_network.node[2].core_layer 	slots_sent[face$o[15]->node[33]] 	204500
scalar barabasi_100nodes_network.node[2].core_layer 	slots_sent[face$o[16]->node[34]] 	207300
scalar barabasi_100nodes_network.node[2].core_layer 	slots_sent[face$o[17]->node[36]] 	370500
scalar barabasi_100nodes_network.node[2].core_layer 	slots_sent[face$o[18]->node[41]] 	535700
scalar barabasi_100nodes_network.node[2].core_layer 	slots_sent[face$o[19]->node[45]] 	192700
scalar barabasi_100nodes_network.node[2].core_layer 	slots_sent[face$o[20]->node[59]] 	200800
scalar barabasi_100nodes_network.node[2].core_layer 	slots_sent[face$o[21]->node[62]] 	532100
scalar barabasi_100nodes_network.node[2].core_layer 	slots_sent[face$o[22]->node[79]] 	199700
scalar barabasi_100nodes_network.node[2].content_store 	p_hit[2] 	0.36941329175538
scalar barabasi_100nodes_network.node[2].content_store 	hits[2] 	46675
scalar barabasi_100nodes_network.node[2].content_store 	misses[2] 	79674
scalar barabasi_100nodes_network.node[2].content_store 	decision_yes[2] 	79674
scalar barabasi_100nodes_network.node[2].content_store 	decision_no[2] 	0
scalar barabasi_100nodes_network.node[2].content_store 	decision_ratio[2] 	1
scalar barabasi_100nodes_network.node[3].core_layer 	interests[3] 	5246
scalar barabasi_100nodes_network.node[3].core_layer 	data[3] 	3630
scalar barabasi_100nodes_network.node[3].core_layer 	slots_sent[face$o[1]->client[3]] 	323300
scalar barabasi_100nodes_network.node[3].core_layer 	slots_sent[face$o[2]->node[2]] 	0
scalar barabasi_100nodes_network.node[3].core_layer 	slots_sent[face$o[3]->node[52]] 	201300
scalar barabasi_100nodes_network.node[3].content_store 	p_hit[3] 	0.3080442241708
scalar barabasi_100nodes_network.node[3].content_store 	hits[3] 	1616
scalar barabasi_100nodes_network.node[3].content_store 	misses[3] 	3630
scalar barabasi_100nodes_network.node[3].content_store 	decision_yes[3] 	3630
scalar barabasi_100nodes_network.node[3].content_store 	decision_no[3] 	0
scalar barabasi_100nodes_network.node[3].content_store 	decision_ratio[3] 	1
scalar barabasi_100nodes_network.node[4].core_layer 	interests[4] 	12600
scalar barabasi_100nodes_network.node[4].core_layer 	data[4] 	9562
scalar barabasi_100nodes_network.node[4].core_layer 	slots_sent[face$o[1]->client[4]] 	321500
scalar barabasi_100nodes_network.node[4].core_layer 	slots_sent[face$o[2]->node[2]] 	0
scalar barabasi_100nodes_network.node[4].core_layer 	slots_sent[face$o[3]->node[27]] 	366000
scalar barabasi_100nodes_network.node[4].core_layer 	slots_sent[face$o[4]->node[30]] 	377200
scalar barabasi_100nodes_network.node[4].core_layer 	slots_sent[face$o[5]->node[85]] 	195300
scalar barabasi_100nodes_network.node[4].content_store 	p_hit[4] 	0.24111111111111
scalar barabasi_100nodes_network.node[4].content_store 	hits[4] 	3038
scalar barabasi_100nodes_network.node[4].content_store 	misses[4] 	9562
scalar barabasi_100nodes_network.node[4].content_store 	decision_yes[4] 	9562
scalar barabasi_100nodes_network.node[4].content_store 	decision_no[4] 	0
scalar barabasi_100nodes_network.node[4].content_store 	decision_ratio[4] 	1
scalar barabasi_100nodes_network.node[5].core_layer 	interests[5] 	8873
scalar barabasi_100nodes_network.node[5].core_layer 	data[5] 	6676
scalar barabasi_100nodes_network.node[5].core_layer 	slots_sent[face$o[1]->client[5]] 	323700
scalar barabasi_100nodes_network.node[5].core_layer 	slots_sent[face$o[2]->node[0]] 	0
scalar barabasi_100nodes_network.node[5].core_layer 	slots_sent[face$o[3]->node[9]] 	195600
scalar barabasi_100nodes_network.node[5].core_layer 	slots_sent[face$o[4]->node[35]] 	368000
scalar barabasi_100nodes_network.node[5].content_store 	p_hit[5] 	0.24760509410571
scalar barabasi_100nodes_network.node[5].content_store 	hits[5] 	2197
scalar barabasi_100nodes_network.node[5].content_store 	misses[5] 	6676
scalar barabasi_100nodes_network.node[5].content_store 	decision_yes[5] 	6676
scalar barabasi_100nodes_network.node[5].content_store 	decision_no[5] 	0
scalar barabasi_100nodes_network.node[5].content_store 	decision_ratio[5] 	1
scalar barabasi_100nodes_network.node[6].core_layer 	interests[6] 	3345
scalar barabasi_100nodes_network.node[6].core_layer 	repo_load[6] 	760
scalar barabasi_100nodes_network.node[6].core_layer 	data[6] 	1470
scalar barabasi_100nodes_network.node[6].core_layer 	slots_sent[face$o[1]->client[6]] 	334500
scalar barabasi_100nodes_network.node[6].core_layer 	slots_sent[face$o[2]->node[2]] 	0
scalar barabasi_100nodes_network.node[6].content_store 	p_hit[6] 	0.33333333333333
scalar barabasi_100nodes_network.node[6].content_store 	hits[6] 	1115
scalar barabasi_100nodes_network.node[6].content_store 	misses[6] 	2230
scalar barabasi_100nodes_network.node[6].content_store 	decision_yes[6] 	1470
scalar barabasi_100nodes_network.node[6].content_store 	decision_no[6] 	760
scalar barabasi_100nodes_network.node[6].content_store 	decision_ratio[6] 	0.65919282511211
scalar barabasi_100nodes_network.node[7].core_layer 	interests[7] 	41617
scalar barabasi_100nodes_network.node[7].core_layer 	repo_load[7] 	6250
scalar barabasi_100nodes_network.node[7].core_layer 	data[7] 	30978
scalar barabasi_100nodes_network.node[7].core_layer 	slots_sent[face$o[1]->client[7]] 	320600
scalar barabasi_100nodes_network.node[7].core_layer 	slots_sent[face$o[2]->node[2]] 	2037900
scalar barabasi_100nodes_network.node[7].core_layer 	slots_sent[face$o[3]->node[23]] 	773600
scalar barabasi_100nodes_network.node[7].core_layer 	slots_sent[face$o[4]->node[31]] 	631800
scalar barabasi_100nodes_network.node[7].core_layer 	slots_sent[face$o[5]->node[49]] 	201800
scalar barabasi_100nodes_network.node[7].core_layer 	slots_sent[face$o[6]->node[90]] 	196000
scalar barabasi_100nodes_network.node[7].content_store 	p_hit[7] 	0.10546171035875
scalar barabasi_100nodes_network.node[7].content_store 	hits[7] 	4389
scalar barabasi_100nodes_network.node[7].content_store 	misses[7] 	37228
scalar barabasi_100nodes_network.node[7].content_store 	decision_yes[7] 	30978
scalar barabasi_100nodes_network.node[7].content_store 	decision_no[7] 	6250
scalar barabasi_100nodes_network.node[7].content_store 	decision_ratio[7] 	0.83211561190502
scalar barabasi_100nodes_network.node[8].core_layer 	interests[8] 	16153
scalar barabasi_100nodes_network.node[8].core_layer 	data[8] 	11727
scalar barabasi_100nodes_network.node[8].core_layer 	slots_sent[face$o[1]->client[8]] 	324300
scalar barabasi_100nodes_network.node[8].core_layer 	slots_sent[face$o[2]->node[2]] 	0
scalar barabasi_100nodes_network.node[8].core_layer 	slots_sent[face$o[3]->node[12]] 	205200
scalar barabasi_100nodes_network.node[8].core_layer 	slots_sent[face$o[4]->node[14]] 	151700
scalar barabasi_100nodes_network.node[8].core_layer 	slots_sent[face$o[5]->node[17]] 	154600
scalar barabasi_100nodes_network.node[8].core_layer 	slots_sent[face$o[6]->node[39]] 	374200
scalar barabasi_100nodes_network.node[8].core_layer 	slots_sent[face$o[7]->node[61]] 	202500
scalar barabasi_100nodes_network.node[8].core_layer 	slots_sent[face$o[8]->node[66]] 	202800
scalar barabasi_100nodes_network.node[8].content_store 	p_hit[8] 	0.27400482882437
scalar barabasi_100nodes_network.node[8].content_store 	hits[8] 	4426
scalar barabasi_100nodes_network.node[8].content_store 	misses[8] 	11727
scalar barabasi_100nodes_network.node[8].content_store 	decision_yes[8] 	11727
scalar barabasi_100nodes_network.node[8].content_store 	decision_no[8] 	0
scalar barabasi_100nodes_network.node[8].content_store 	decision_ratio[8] 	1
scalar barabasi_100nodes_network.node[9].core_layer 	interests[9] 	3252
scalar barabasi_100nodes_network.node[9].core_layer 	data[9] 	1956
scalar barabasi_100nodes_network.node[9].core_layer 	slots_sent[face$o[1]->client[9]] 	325200
scalar barabasi_100nodes_network.node[9].core_layer 	slots_sent[face$o[2]->node[5]] 	0
scalar barabasi_100nodes_network.node[9].content_store 	p_hit[9] 	0.39852398523985
scalar barabasi_100nodes_network.node[9].content_store 	hits[9] 	1296
scalar barabasi_100nodes_network.node[9].content_store 	misses[9] 	1956
scalar barabasi_100nodes_network.node[9].content_store 	decision_yes[9] 	1956
scalar barabasi_100nodes_network.node[9].content_store 	decision_no[9] 	0
scalar barabasi_100nodes_network.node[9].content_store 	decision_ratio[9] 	1
scalar barabasi_100nodes_network.node[10].core_layer 	interests[10] 	5230
scalar barabasi_100nodes_network.node[10].core_layer 	repo_load[10] 	1065
scalar barabasi_100nodes_network.node[10].core_layer 	data[10] 	2746
scalar barabasi_100nodes_network.node[10].core_layer 	slots_sent[face$o[1]->client[10]] 	331500
scalar barabasi_100nodes_network.node[10].core_layer 	slots_sent[face$o[2]->node[0]] 	0
scalar barabasi_100nodes_network.node[10].core_layer 	slots_sent[face$o[3]->node[71]] 	191500
scalar barabasi_100nodes_network.node[10].content_store 	p_hit[10] 	0.27131931166348
scalar barabasi_100nodes_network.node[10].content_store 	hits[10] 	1419
scalar barabasi_100nodes_network.node[10].content_store 	misses[10] 	3811
scalar barabasi_100nodes_network.node[10].content_store 	decision_yes[10] 	2746
scalar barabasi_100nodes_network.node[10].content_store 	decision_no[10] 	1065
scalar barabasi_100nodes_network.node[10].content_store 	decision_ratio[10] 	0.72054578850695
scalar barabasi_100nodes_network.node[11].core_layer 	interests[11] 	3363
scalar barabasi_100nodes_network.node[11].core_layer 	repo_load[11] 	1025
scalar barabasi_100nodes_network.node[11].core_layer 	data[11] 	1570
scalar barabasi_100nodes_network.node[11].core_layer 	slots_sent[face$o[1]->client[11]] 	336300
scalar barabasi_100nodes_network.node[11].core_layer 	slots_sent[face$o[2]->node[0]] 	0
scalar barabasi_100nodes_network.node[11].content_store 	p_hit[11] 	0.22836752899197
scalar barabasi_100nodes_network.node[11].content_store 	hits[11] 	768
scalar barabasi_100nodes_network.node[11].content_store 	misses[11] 	2595
scalar barabasi_100nodes_network.node[11].content_store 	decision_yes[11] 	1570
scalar barabasi_100nodes_network.node[11].content_store 	decision_no[11] 	1025
scalar barabasi_100nodes_network.node[11].content_store 	decision_ratio[11] 	0.60500963391137
scalar barabasi_100nodes_network.node[12].core_layer 	interests[12] 	3339
scalar barabasi_100nodes_network.node[12].core_layer 	data[12] 	2052
scalar barabasi_100nodes_network.node[12].core_layer 	slots_sent[face$o[1]->client[12]] 	333900
scalar barabasi_100nodes_network.node[12].core_layer 	slots_sent[face$o[2]->node[8]] 	0
scalar barabasi_100nodes_network.node[12].content_store 	p_hit[12] 	0.38544474393531
scalar barabasi_100nodes_network.node[12].content_store 	hits[12] 	1287
scalar barabasi_100nodes_network.node[12].content_store 	misses[12] 	2052
scalar barabasi_100nodes_network.node[12].content_store 	decision_yes[12] 	2052
scalar barabasi_100nodes_network.node[12].content_store 	decision_no[12] 	0
scalar barabasi_100nodes_network.node[12].content_store 	decision_ratio[12] 	1
scalar barabasi_100nodes_network.node[13].core_layer 	interests[13] 	10163
scalar barabasi_100nodes_network.node[13].core_layer 	repo_load[13] 	2562
scalar barabasi_100nodes_network.node[13].core_layer 	data[13] 	5734
scalar barabasi_100nodes_network.node[13].core_layer 	slots_sent[face$o[1]->client[13]] 	339400
scalar barabasi_100nodes_network.node[13].core_layer 	slots_sent[face$o[2]->node[2]] 	0
scalar barabasi_100nodes_network.node[13].core_layer 	slots_sent[face$o[3]->node[67]] 	202400
scalar barabasi_100nodes_network.node[13].core_layer 	slots_sent[face$o[4]->node[78]] 	474500
scalar barabasi_100nodes_network.node[13].content_store 	p_hit[13] 	0.18370559874053
scalar barabasi_100nodes_network.node[13].content_store 	hits[13] 	1867
scalar barabasi_100nodes_network.node[13].content_store 	misses[13] 	8296
scalar barabasi_100nodes_network.node[13].content_store 	decision_yes[13] 	5734
scalar barabasi_100nodes_network.node[13].content_store 	decision_no[13] 	2562
scalar barabasi_100nodes_network.node[13].content_store 	decision_ratio[13] 	0.69117647058824
scalar barabasi_100nodes_network.node[14].core_layer 	interests[14] 	3264
scalar barabasi_100nodes_network.node[14].core_layer 	repo_load[14] 	954
scalar barabasi_100nodes_network.node[14].core_layer 	data[14] 	1517
scalar barabasi_100nodes_network.node[14].core_layer 	slots_sent[face$o[1]->client[14]] 	326400
scalar barabasi_100nodes_network.node[14].core_layer 	slots_sent[face$o[2]->node[8]] 	0
scalar barabasi_100nodes_network.node[14].content_store 	p_hit[14] 	0.24295343137255
scalar barabasi_100nodes_network.node[14].content_store 	hits[14] 	793
scalar barabasi_100nodes_network.node[14].content_store 	misses[14] 	2471
scalar barabasi_100nodes_network.node[14].content_store 	decision_yes[14] 	1517
scalar barabasi_100nodes_network.node[14].content_store 	decision_no[14] 	954
scalar barabasi_100nodes_network.node[14].content_store 	decision_ratio[14] 	0.6139214892756
scalar barabasi_100nodes_network.node[15].core_layer 	interests[15] 	7271
scalar barabasi_100nodes_network.node[15].core_layer 	repo_load[15] 	1925
scalar barabasi_100nodes_network.node[15].core_layer 	data[15] 	3903
scalar barabasi_100nodes_network.node[15].core_layer 	slots_sent[face$o[1]->client[15]] 	332700
scalar barabasi_100nodes_network.node[15].core_layer 	slots_sent[face$o[2]->node[0]] 	0
scalar barabasi_100nodes_network.node[15].core_layer 	slots_sent[face$o[3]->node[40]] 	197100
scalar barabasi_100nodes_network.node[15].core_layer 	slots_sent[face$o[4]->node[56]] 	197300
scalar barabasi_100nodes_network.node[15].content_store 	p_hit[15] 	0.19845963416311
scalar barabasi_100nodes_network.node[15].content_store 	hits[15] 	1443
scalar barabasi_100nodes_network.node[15].content_store 	misses[15] 	5828
scalar barabasi_100nodes_network.node[15].content_store 	decision_yes[15] 	3903
scalar barabasi_100nodes_network.node[15].content_store 	decision_no[15] 	1925
scalar barabasi_100nodes_network.node[15].content_store 	decision_ratio[15] 	0.66969800960879
scalar barabasi_100nodes_network.node[16].core_layer 	interests[16] 	13018
scalar barabasi_100nodes_network.node[16].core_layer 	data[16] 	10561
scalar barabasi_100nodes_network.node[16].core_layer 	slots_sent[face$o[1]->client[16]] 	321900
scalar barabasi_100nodes_network.node[16].core_layer 	slots_sent[face$o[2]->node[2]] 	0
scalar barabasi_100nodes_network.node[16].core_layer 	slots_sent[face$o[3]->node[19]] 	778200
scalar barabasi_100nodes_network.node[16].core_layer 	slots_sent[face$o[4]->node[20]] 	201700
scalar barabasi_100nodes_network.node[16].content_store 	p_hit[16] 	0.18873866953449
scalar barabasi_100nodes_network.node[16].content_store 	hits[16] 	2457
scalar barabasi_100nodes_network.node[16].content_store 	misses[16] 	10561
scalar barabasi_100nodes_network.node[16].content_store 	decision_yes[16] 	10561
scalar barabasi_100nodes_network.node[16].content_store 	decision_no[16] 	0
scalar barabasi_100nodes_network.node[16].content_store 	decision_ratio[16] 	1
scalar barabasi_100nodes_network.node[17].core_layer 	interests[17] 	3303
scalar barabasi_100nodes_network.node[17].core_layer 	repo_load[17] 	772
scalar barabasi_100nodes_network.node[17].core_layer 	data[17] 	1546
scalar barabasi_100nodes_network.node[17].core_layer 	slots_sent[face$o[1]->client[17]] 	330300
scalar barabasi_100nodes_network.node[17].core_layer 	slots_sent[face$o[2]->node[8]] 	0
scalar barabasi_100nodes_network.node[17].content_store 	p_hit[17] 	0.29821374508023
scalar barabasi_100nodes_network.node[17].content_store 	hits[17] 	985
scalar barabasi_100nodes_network.node[17].content_store 	misses[17] 	2318
scalar barabasi_100nodes_network.node[17].content_store 	decision_yes[17] 	1546
scalar barabasi_100nodes_network.node[17].content_store 	decision_no[17] 	772
scalar barabasi_100nodes_network.node[17].content_store 	decision_ratio[17] 	0.66695427092321
scalar barabasi_100nodes_network.node[18].core_layer 	interests[18] 	9296
scalar barabasi_100nodes_network.node[18].core_layer 	data[18] 	6786
scalar barabasi_100nodes_network.node[18].core_layer 	slots_sent[face$o[1]->client[18]] 	327100
scalar barabasi_100nodes_network.node[18].core_layer 	slots_sent[face$o[2]->node[2]] 	0
scalar barabasi_100nodes_network.node[18].core_layer 	slots_sent[face$o[3]->node[53]] 	200600
scalar barabasi_100nodes_network.node[18].core_layer 	slots_sent[face$o[4]->node[68]] 	199000
scalar barabasi_100nodes_network.node[18].core_layer 	slots_sent[face$o[5]->node[72]] 	202900
scalar barabasi_100nodes_network.node[18].content_store 	p_hit[18] 	0.27000860585198
scalar barabasi_100nodes_network.node[18].content_store 	hits[18] 	2510
scalar barabasi_100nodes_network.node[18].content_store 	misses[18] 	6786
scalar barabasi_100nodes_network.node[18].content_store 	decision_yes[18] 	6786
scalar barabasi_100nodes_network.node[18].content_store 	decision_no[18] 	0
scalar barabasi_100nodes_network.node[18].content_store 	decision_ratio[18] 	1
scalar barabasi_100nodes_network.node[19].core_layer 	interests[19] 	10785
scalar barabasi_100nodes_network.node[19].core_layer 	data[19] 	7782
scalar barabasi_100nodes_network.node[19].core_layer 	slots_sent[face$o[1]->client[19]] 	335300
scalar barabasi_100nodes_network.node[19].core_layer 	slots_sent[face$o[2]->node[16]] 	0
scalar barabasi_100nodes_network.node[19].core_layer 	slots_sent[face$o[3]->node[63]] 	198500
scalar barabasi_100nodes_network.node[19].core_layer 	slots_sent[face$o[4]->node[70]] 	201800
scalar barabasi_100nodes_network.node[19].core_layer 	slots_sent[face$o[5]->node[80]] 	200800
scalar barabasi_100nodes_network.node[19].core_layer 	slots_sent[face$o[6]->node[89]] 	142100
scalar barabasi_100nodes_network.node[19].content_store 	p_hit[19] 	0.27844228094576
scalar barabasi_100nodes_network.node[19].content_store 	hits[19] 	3003
scalar barabasi_100nodes_network.node[19].content_store 	misses[19] 	7782
scalar barabasi_100nodes_network.node[19].content_store 	decision_yes[19] 	7782
scalar barabasi_100nodes_network.node[19].content_store 	decision_no[19] 	0
scalar barabasi_100nodes_network.node[19].content_store 	decision_ratio[19] 	1
scalar barabasi_100nodes_network.node[20].core_layer 	interests[20] 	3326
scalar barabasi_100nodes_network.node[20].core_layer 	data[20] 	2017
scalar barabasi_100nodes_network.node[20].core_layer 	slots_sent[face$o[1]->client[20]] 	332600
scalar barabasi_100nodes_network.node[20].core_layer 	slots_sent[face$o[2]->node[16]] 	0
scalar barabasi_100nodes_network.node[20].content_store 	p_hit[20] 	0.39356584485869
scalar barabasi_100nodes_network.node[20].content_store 	hits[20] 	1309
scalar barabasi_100nodes_network.node[20].content_store 	misses[20] 	2017
scalar barabasi_100nodes_network.node[20].content_store 	decision_yes[20] 	2017
scalar barabasi_100nodes_network.node[20].content_store 	decision_no[20] 	0
scalar barabasi_100nodes_network.node[20].content_store 	decision_ratio[20] 	1
scalar barabasi_100nodes_network.node[21].core_layer 	interests[21] 	7179
scalar barabasi_100nodes_network.node[21].core_layer 	data[21] 	5177
scalar barabasi_100nodes_network.node[21].core_layer 	slots_sent[face$o[1]->client[21]] 	322500
scalar barabasi_100nodes_network.node[21].core_layer 	slots_sent[face$o[2]->node[0]] 	0
scalar barabasi_100nodes_network.node[21].core_layer 	slots_sent[face$o[3]->node[24]] 	194200
scalar barabasi_100nodes_network.node[21].core_layer 	slots_sent[face$o[4]->node[57]] 	201200
scalar barabasi_100nodes_network.node[21].content_store 	p_hit[21] 	0.27886892324836
scalar barabasi_100nodes_network.node[21].content_store 	hits[21] 	2002
scalar barabasi_100nodes_network.node[21].content_store 	misses[21] 	5177
scalar barabasi_100nodes_network.node[21].content_store 	decision_yes[21] 	5177
scalar barabasi_100nodes_network.node[21].content_store 	decision_no[21] 	0
scalar barabasi_100nodes_network.node[21].content_store 	decision_ratio[21] 	1
scalar barabasi_100nodes_network.node[22].core_layer 	interests[22] 	3258
scalar barabasi_100nodes_network.node[22].core_layer 	data[22] 	1978
scalar barabasi_100nodes_network.node[22].core_layer 	slots_sent[face$o[1]->client[22]] 	325800
scalar barabasi_100nodes_network.node[22].core_layer 	slots_sent[face$o[2]->node[0]] 	0
scalar barabasi_100nodes_network.node[22].content_store 	p_hit[22] 	0.39287906691222
scalar barabasi_100nodes_network.node[22].content_store 	hits[22] 	1280
scalar barabasi_100nodes_network.node[22].content_store 	misses[22] 	1978
scalar barabasi_100nodes_network.node[22].content_store 	decision_yes[22] 	1978
scalar barabasi_100nodes_network.node[22].content_store 	decision_no[22] 	0
scalar barabasi_100nodes_network.node[22].content_store 	decision_ratio[22] 	1
scalar barabasi_100nodes_network.node[23].core_layer 	interests[23] 	34814
scalar barabasi_100nodes_network.node[23].core_layer 	data[23] 	30167
scalar barabasi_100nodes_network.node[23].core_layer 	slots_sent[face$o[1]->client[23]] 	318500
scalar barabasi_100nodes_network.node[23].core_layer 	slots_sent[face$o[2]->node[7]] 	2148300
scalar barabasi_100nodes_network.node[23].core_layer 	slots_sent[face$o[3]->node[46]] 	275700
scalar barabasi_100nodes_network.node[23].core_layer 	slots_sent[face$o[4]->node[47]] 	150400
scalar barabasi_100nodes_network.node[23].core_layer 	slots_sent[face$o[5]->node[51]] 	191300
scalar barabasi_100nodes_network.node[23].core_layer 	slots_sent[face$o[6]->node[83]] 	197600
scalar barabasi_100nodes_network.node[23].core_layer 	slots_sent[face$o[7]->node[86]] 	199600
scalar barabasi_100nodes_network.node[23].content_store 	p_hit[23] 	0.13348078359281
scalar barabasi_100nodes_network.node[23].content_store 	hits[23] 	4647
scalar barabasi_100nodes_network.node[23].content_store 	misses[23] 	30167
scalar barabasi_100nodes_network.node[23].content_store 	decision_yes[23] 	30167
scalar barabasi_100nodes_network.node[23].content_store 	decision_no[23] 	0
scalar barabasi_100nodes_network.node[23].content_store 	decision_ratio[23] 	1
scalar barabasi_100nodes_network.node[24].core_layer 	interests[24] 	3191
scalar barabasi_100nodes_network.node[24].core_layer 	data[24] 	1942
scalar barabasi_100nodes_network.node[24].core_layer 	slots_sent[face$o[1]->client[24]] 	319100
scalar barabasi_100nodes_network.node[24].core_layer 	slots_sent[face$o[2]->node[21]] 	0
scalar barabasi_100nodes_network.node[24].content_store 	p_hit[24] 	0.39141335004701
scalar barabasi_100nodes_network.node[24].content_store 	hits[24] 	1249
scalar barabasi_100nodes_network.node[24].content_store 	misses[24] 	1942
scalar barabasi_100nodes_network.node[24].content_store 	decision_yes[24] 	1942
scalar barabasi_100nodes_network.node[24].content_store 	decision_no[24] 	0
scalar barabasi_100nodes_network.node[24].content_store 	decision_ratio[24] 	1
scalar barabasi_100nodes_network.node[25].core_layer 	interests[25] 	5222
scalar barabasi_100nodes_network.node[25].core_layer 	data[25] 	3583
scalar barabasi_100nodes_network.node[25].core_layer 	slots_sent[face$o[1]->client[25]] 	326800
scalar barabasi_100nodes_network.node[25].core_layer 	slots_sent[face$o[2]->node[2]] 	0
scalar barabasi_100nodes_network.node[25].core_layer 	slots_sent[face$o[3]->node[38]] 	195400
scalar barabasi_100nodes_network.node[25].content_store 	p_hit[25] 	0.31386441976254
scalar barabasi_100nodes_network.node[25].content_store 	hits[25] 	1639
scalar barabasi_100nodes_network.node[25].content_store 	misses[25] 	3583
scalar barabasi_100nodes_network.node[25].content_store 	decision_yes[25] 	3583
scalar barabasi_100nodes_network.node[25].content_store 	decision_no[25] 	0
scalar barabasi_100nodes_network.node[25].content_store 	decision_ratio[25] 	1
scalar barabasi_100nodes_network.node[26].core_layer 	interests[26] 	8903
scalar barabasi_100nodes_network.node[26].core_layer 	data[26] 	6642
scalar barabasi_100nodes_network.node[26].core_layer 	slots_sent[face$o[1]->client[26]] 	333700
scalar barabasi_100nodes_network.node[26].core_layer 	slots_sent[face$o[2]->node[2]] 	0
scalar barabasi_100nodes_network.node[26].core_layer 	slots_sent[face$o[3]->node[77]] 	366300
scalar barabasi_100nodes_network.node[26].core_layer 	slots_sent[face$o[4]->node[91]] 	190300
scalar barabasi_100nodes_network.node[26].content_store 	p_hit[26] 	0.25395933954847
scalar barabasi_100nodes_network.node[26].content_store 	hits[26] 	2261
scalar barabasi_100nodes_network.node[26].content_store 	misses[26] 	6642
scalar barabasi_100nodes_network.node[26].content_store 	decision_yes[26] 	6642
scalar barabasi_100nodes_network.node[26].content_store 	decision_no[26] 	0
scalar barabasi_100nodes_network.node[26].content_store 	decision_ratio[26] 	1
scalar barabasi_100nodes_network.node[27].core_layer 	interests[27] 	5232
scalar barabasi_100nodes_network.node[27].core_layer 	data[27] 	3660
scalar barabasi_100nodes_network.node[27].core_layer 	slots_sent[face$o[1]->client[27]] 	323800
scalar barabasi_100nodes_network.node[27].core_layer 	slots_sent[face$o[2]->node[4]] 	0
scalar barabasi_100nodes_network.node[27].core_layer 	slots_sent[face$o[3]->node[99]] 	199400
scalar barabasi_100nodes_network.node[27].content_store 	p_hit[27] 	0.30045871559633
scalar barabasi_100nodes_network.node[27].content_store 	hits[27] 	1572
scalar barabasi_100nodes_network.node[27].content_store 	misses[27] 	3660
scalar barabasi_100nodes_network.node[27].content_store 	decision_yes[27] 	3660
scalar barabasi_100nodes_network.node[27].content_store 	decision_no[27] 	0
scalar barabasi_100nodes_network.node[27].content_store 	decision_ratio[27] 	1
scalar barabasi_100nodes_network.node[28].core_layer 	interests[28] 	3314
scalar barabasi_100nodes_network.node[28].core_layer 	data[28] 	2066
scalar barabasi_100nodes_network.node[28].core_layer 	slots_sent[face$o[1]->client[28]] 	331400
scalar barabasi_100nodes_network.node[28].core_layer 	slots_sent[face$o[2]->node[0]] 	0
scalar barabasi_100nodes_network.node[28].content_store 	p_hit[28] 	0.37658418829209
scalar barabasi_100nodes_network.node[28].content_store 	hits[28] 	1248
scalar barabasi_100nodes_network.node[28].content_store 	misses[28] 	2066
scalar barabasi_100nodes_network.node[28].content_store 	decision_yes[28] 	2066
scalar barabasi_100nodes_network.node[28].content_store 	decision_no[28] 	0
scalar barabasi_100nodes_network.node[28].content_store 	decision_ratio[28] 	1
scalar barabasi_100nodes_network.node[29].core_layer 	interests[29] 	3190
scalar barabasi_100nodes_network.node[29].core_layer 	data[29] 	1987
scalar barabasi_100nodes_network.node[29].core_layer 	slots_sent[face$o[1]->client[29]] 	319000
scalar barabasi_100nodes_network.node[29].core_layer 	slots_sent[face$o[2]->node[2]] 	0
scalar barabasi_100nodes_network.node[29].content_store 	p_hit[29] 	0.37711598746082
scalar barabasi_100nodes_network.node[29].content_store 	hits[29] 	1203
scalar barabasi_100nodes_network.node[29].content_store 	misses[29] 	1987
scalar barabasi_100nodes_network.node[29].content_store 	decision_yes[29] 	1987
scalar barabasi_100nodes_network.node[29].content_store 	decision_no[29] 	0
scalar barabasi_100nodes_network.node[29].content_store 	decision_ratio[29] 	1
scalar barabasi_100nodes_network.node[30].core_layer 	interests[30] 	5389
scalar barabasi_100nodes_network.node[30].core_layer 	data[30] 	3772
scalar barabasi_100nodes_network.node[30].core_layer 	slots_sent[face$o[1]->client[30]] 	336200
scalar barabasi_100nodes_network.node[30].core_layer 	slots_sent[face$o[2]->node[4]] 	0
scalar barabasi_100nodes_network.node[30].core_layer 	slots_sent[face$o[3]->node[88]] 	202700
scalar barabasi_100nodes_network.node[30].content_store 	p_hit[30] 	0.30005566895528
scalar barabasi_100nodes_network.node[30].content_store 	hits[30] 	1617
scalar barabasi_100nodes_network.node[30].content_store 	misses[30] 	3772
scalar barabasi_100nodes_network.node[30].content_store 	decision_yes[30] 	3772
scalar barabasi_100nodes_network.node[30].content_store 	decision_no[30] 	0
scalar barabasi_100nodes_network.node[30].content_store 	decision_ratio[30] 	1
scalar barabasi_100nodes_network.node[31].core_layer 	interests[31] 	7997
scalar barabasi_100nodes_network.node[31].core_layer 	data[31] 	6318
scalar barabasi_100nodes_network.node[31].core_layer 	slots_sent[face$o[1]->client[31]] 	320100
scalar barabasi_100nodes_network.node[31].core_layer 	slots_sent[face$o[2]->node[7]] 	0
scalar barabasi_100nodes_network.node[31].core_layer 	slots_sent[face$o[3]->node[65]] 	479600
scalar barabasi_100nodes_network.node[31].content_store 	p_hit[31] 	0.20995373264974
scalar barabasi_100nodes_network.node[31].content_store 	hits[31] 	1679
scalar barabasi_100nodes_network.node[31].content_store 	misses[31] 	6318
scalar barabasi_100nodes_network.node[31].content_store 	decision_yes[31] 	6318
scalar barabasi_100nodes_network.node[31].content_store 	decision_no[31] 	0
scalar barabasi_100nodes_network.node[31].content_store 	decision_ratio[31] 	1
scalar barabasi_100nodes_network.node[32].core_layer 	interests[32] 	7205
scalar barabasi_100nodes_network.node[32].core_layer 	data[32] 	5179
scalar barabasi_100nodes_network.node[32].core_layer 	slots_sent[face$o[1]->client[32]] 	325000
scalar barabasi_100nodes_network.node[32].core_layer 	slots_sent[face$o[2]->node[2]] 	0
scalar barabasi_100nodes_network.node[32].core_layer 	slots_sent[face$o[3]->node[43]] 	201600
scalar barabasi_100nodes_network.node[32].core_layer 	slots_sent[face$o[4]->node[64]] 	193900
scalar barabasi_100nodes_network.node[32].content_store 	p_hit[32] 	0.28119361554476
scalar barabasi_100nodes_network.node[32].content_store 	hits[32] 	2026
scalar barabasi_100nodes_network.node[32].content_store 	misses[32] 	5179
scalar barabasi_100nodes_network.node[32].content_store 	decision_yes[32] 	5179
scalar barabasi_100nodes_network.node[32].content_store 	decision_no[32] 	0
scalar barabasi_100nodes_network.node[32].content_store 	decision_ratio[32] 	1
scalar barabasi_100nodes_network.node[33].core_layer 	interests[33] 	3361
scalar barabasi_100nodes_network.node[33].core_layer 	data[33] 	2045
scalar barabasi_100nodes_network.node[33].core_layer 	slots_sent[face$o[1]->client[33]] 	336100
scalar barabasi_100nodes_network.node[33].core_layer 	slots_sent[face$o[2]->node[2]] 	0
scalar barabasi_100nodes_network.node[33].content_store 	p_hit[33] 	0.39155013388872
scalar barabasi_100nodes_network.node[33].content_store 	hits[33] 	1316
scalar barabasi_100nodes_network.node[33].content_store 	misses[33] 	2045
scalar barabasi_100nodes_network.node[33].content_store 	decision_yes[33] 	2045
scalar barabasi_100nodes_network.node[33].content_store 	decision_no[33] 	0
scalar barabasi_100nodes_network.node[33].content_store 	decision_ratio[33] 	1
scalar barabasi_100nodes_network.node[34].core_layer 	interests[34] 	3377
scalar barabasi_100nodes_network.node[34].core_layer 	data[34] 	2073
scalar barabasi_100nodes_network.node[34].core_layer 	slots_sent[face$o[1]->client[34]] 	337700
scalar barabasi_100nodes_network.node[34].core_layer 	slots_sent[face$o[2]->node[2]] 	0
scalar barabasi_100nodes_network.node[34].content_store 	p_hit[34] 	0.38614154575067
scalar barabasi_100nodes_network.node[34].content_store 	hits[34] 	1304
scalar barabasi_100nodes_network.node[34].content_store 	misses[34] 	2073
scalar barabasi_100nodes_network.node[34].content_store 	decision_yes[34] 	2073
scalar barabasi_100nodes_network.node[34].content_store 	decision_no[34] 	0
scalar barabasi_100nodes_network.node[34].content_store 	decision_ratio[34] 	1
scalar barabasi_100nodes_network.node[35].core_layer 	interests[35] 	5268
scalar barabasi_100nodes_network.node[35].core_layer 	data[35] 	3680
scalar barabasi_100nodes_network.node[35].core_layer 	slots_sent[face$o[1]->client[35]] 	328000
scalar barabasi_100nodes_network.node[35].core_layer 	slots_sent[face$o[2]->node[5]] 	0
scalar barabasi_100nodes_network.node[35].core_layer 	slots_sent[face$o[3]->node[50]] 	198800
scalar barabasi_100nodes_network.node[35].content_store 	p_hit[35] 	0.30144267274108
scalar barabasi_100nodes_network.node[35].content_store 	hits[35] 	1588
scalar barabasi_100nodes_network.node[35].content_store 	misses[35] 	3680
scalar barabasi_100nodes_network.node[35].content_store 	decision_yes[35] 	3680
scalar barabasi_100nodes_network.node[35].content_store 	decision_no[35] 	0
scalar barabasi_100nodes_network.node[35].content_store 	decision_ratio[35] 	1
scalar barabasi_100nodes_network.node[36].core_layer 	interests[36] 	5267
scalar barabasi_100nodes_network.node[36].core_layer 	data[36] 	3705
scalar barabasi_100nodes_network.node[36].core_layer 	slots_sent[face$o[1]->client[36]] 	320800
scalar barabasi_100nodes_network.node[36].core_layer 	slots_sent[face$o[2]->node[2]] 	0
scalar barabasi_100nodes_network.node[36].core_layer 	slots_sent[face$o[3]->node[75]] 	205900
scalar barabasi_100nodes_network.node[36].content_store 	p_hit[36] 	0.29656350863869
scalar barabasi_100nodes_network.node[36].content_store 	hits[36] 	1562
scalar barabasi_100nodes_network.node[36].content_store 	misses[36] 	3705
scalar barabasi_100nodes_network.node[36].content_store 	decision_yes[36] 	3705
scalar barabasi_100nodes_network.node[36].content_store 	decision_no[36] 	0
scalar barabasi_100nodes_network.node[36].content_store 	decision_ratio[36] 	1
scalar barabasi_100nodes_network.node[37].core_layer 	interests[37] 	3273
scalar barabasi_100nodes_network.node[37].core_layer 	data[37] 	1955
scalar barabasi_100nodes_network.node[37].core_layer 	slots_sent[face$o[1]->client[37]] 	327300
scalar barabasi_100nodes_network.node[37].core_layer 	slots_sent[face$o[2]->node[0]] 	0
scalar barabasi_100nodes_network.node[37].content_store 	p_hit[37] 	0.40268866483349
scalar barabasi_100nodes_network.node[37].content_store 	hits[37] 	1318
scalar barabasi_100nodes_network.node[37].content_store 	misses[37] 	1955
scalar barabasi_100nodes_network.node[37].content_store 	decision_yes[37] 	1955
scalar barabasi_100nodes_network.node[37].content_store 	decision_no[37] 	0
scalar barabasi_100nodes_network.node[37].content_store 	decision_ratio[37] 	1
scalar barabasi_100nodes_network.node[38].core_layer 	interests[38] 	3262
scalar barabasi_100nodes_network.node[38].core_layer 	data[38] 	1954
scalar barabasi_100nodes_network.node[38].core_layer 	slots_sent[face$o[1]->client[38]] 	326200
scalar barabasi_100nodes_network.node[38].core_layer 	slots_sent[face$o[2]->node[25]] 	0
scalar barabasi_100nodes_network.node[38].content_store 	p_hit[38] 	0.40098099325567
scalar barabasi_100nodes_network.node[38].content_store 	hits[38] 	1308
scalar barabasi_100nodes_network.node[38].content_store 	misses[38] 	1954
scalar barabasi_100nodes_network.node[38].content_store 	decision_yes[38] 	1954
scalar barabasi_100nodes_network.node[38].content_store 	decision_no[38] 	0
scalar barabasi_100nodes_network.node[38].content_store 	decision_ratio[38] 	1
scalar barabasi_100nodes_network.node[39].core_layer 	interests[39] 	5307
scalar barabasi_100nodes_network.node[39].core_layer 	data[39] 	3742
scalar barabasi_100nodes_network.node[39].core_layer 	slots_sent[face$o[1]->client[39]] 	325300
scalar barabasi_100nodes_network.node[39].core_layer 	slots_sent[face$o[2]->node[8]] 	0
scalar barabasi_100nodes_network.node[39].core_layer 	slots_sent[face$o[3]->node[60]] 	205400
scalar barabasi_100nodes_network.node[39].content_store 	p_hit[39] 	0.29489353683814
scalar barabasi_100nodes_network.node[39].content_store 	hits[39] 	1565
scalar barabasi_100nodes_network.node[39].content_store 	misses[39] 	3742
scalar barabasi_100nodes_network.node[39].content_store 	decision_yes[39] 	3742
scalar barabasi_100nodes_network.node[39].content_store 	decision_no[39] 	0
scalar barabasi_100nodes_network.node[39].content_store 	decision_ratio[39] 	1
scalar barabasi_100nodes_network.node[40].core_layer 	interests[40] 	3248
scalar barabasi_100nodes_network.node[40].core_layer 	data[40] 	1971
scalar barabasi_100nodes_network.node[40].core_layer 	slots_sent[face$o[1]->client[40]] 	324800
scalar barabasi_100nodes_network.node[40].core_layer 	slots_sent[face$o[2]->node[15]] 	0
scalar barabasi_100nodes_network.node[40].content_store 	p_hit[40] 	0.39316502463054
scalar barabasi_100nodes_network.node[40].content_store 	hits[40] 	1277
scalar barabasi_100nodes_network.node[40].content_store 	misses[40] 	1971
scalar barabasi_100nodes_network.node[40].content_store 	decision_yes[40] 	1971
scalar barabasi_100nodes_network.node[40].content_store 	decision_no[40] 	0
scalar barabasi_100nodes_network.node[40].content_store 	decision_ratio[40] 	1
scalar barabasi_100nodes_network.node[41].core_layer 	interests[41] 	56806
scalar barabasi_100nodes_network.node[41].core_layer 	data[41] 	50695
scalar barabasi_100nodes_network.node[41].core_layer 	slots_sent[face$o[1]->client[41]] 	322500
scalar barabasi_100nodes_network.node[41].core_layer 	slots_sent[face$o[2]->node[2]] 	4310300
scalar barabasi_100nodes_network.node[41].core_layer 	slots_sent[face$o[3]->node[42]] 	205200
scalar barabasi_100nodes_network.node[41].core_layer 	slots_sent[face$o[4]->node[48]] 	195900
scalar barabasi_100nodes_network.node[41].core_layer 	slots_sent[face$o[5]->node[54]] 	353600
scalar barabasi_100nodes_network.node[41].core_layer 	slots_sent[face$o[6]->node[55]] 	149600
scalar barabasi_100nodes_network.node[41].core_layer 	slots_sent[face$o[7]->node[69]] 	143500
scalar barabasi_100nodes_network.node[41].content_store 	p_hit[41] 	0.10757666443686
scalar barabasi_100nodes_network.node[41].content_store 	hits[41] 	6111
scalar barabasi_100nodes_network.node[41].content_store 	misses[41] 	50695
scalar barabasi_100nodes_network.node[41].content_store 	decision_yes[41] 	50695
scalar barabasi_100nodes_network.node[41].content_store 	decision_no[41] 	0
scalar barabasi_100nodes_network.node[41].content_store 	decision_ratio[41] 	1
scalar barabasi_100nodes_network.node[42].core_layer 	interests[42] 	3361
scalar barabasi_100nodes_network.node[42].core_layer 	data[42] 	2052
scalar barabasi_100nodes_network.node[42].core_layer 	slots_sent[face$o[1]->client[42]] 	336100
scalar barabasi_100nodes_network.node[42].core_layer 	slots_sent[face$o[2]->node[41]] 	0
scalar barabasi_100nodes_network.node[42].content_store 	p_hit[42] 	0.38946742041059
scalar barabasi_100nodes_network.node[42].content_store 	hits[42] 	1309
scalar barabasi_100nodes_network.node[42].content_store 	misses[42] 	2052
scalar barabasi_100nodes_network.node[42].content_store 	decision_yes[42] 	2052
scalar barabasi_100nodes_network.node[42].content_store 	decision_no[42] 	0
scalar barabasi_100nodes_network.node[42].content_store 	decision_ratio[42] 	1
scalar barabasi_100nodes_network.node[43].core_layer 	interests[43] 	3324
scalar barabasi_100nodes_network.node[43].core_layer 	data[43] 	2016
scalar barabasi_100nodes_network.node[43].core_layer 	slots_sent[face$o[1]->client[43]] 	332400
scalar barabasi_100nodes_network.node[43].core_layer 	slots_sent[face$o[2]->node[32]] 	0
scalar barabasi_100nodes_network.node[43].content_store 	p_hit[43] 	0.39350180505415
scalar barabasi_100nodes_network.node[43].content_store 	hits[43] 	1308
scalar barabasi_100nodes_network.node[43].content_store 	misses[43] 	2016
scalar barabasi_100nodes_network.node[43].content_store 	decision_yes[43] 	2016
scalar barabasi_100nodes_network.node[43].content_store 	decision_no[43] 	0
scalar barabasi_100nodes_network.node[43].content_store 	decision_ratio[43] 	1
scalar barabasi_100nodes_network.node[44].core_layer 	interests[44] 	3227
scalar barabasi_100nodes_network.node[44].core_layer 	data[44] 	1941
scalar barabasi_100nodes_network.node[44].core_layer 	slots_sent[face$o[1]->client[44]] 	322700
scalar barabasi_100nodes_network.node[44].core_layer 	slots_sent[face$o[2]->node[0]] 	0
scalar barabasi_100nodes_network.node[44].content_store 	p_hit[44] 	0.39851255035637
scalar barabasi_100nodes_network.node[44].content_store 	hits[44] 	1286
scalar barabasi_100nodes_network.node[44].content_store 	misses[44] 	1941
scalar barabasi_100nodes_network.node[44].content_store 	decision_yes[44] 	1941
scalar barabasi_100nodes_network.node[44].content_store 	decision_no[44] 	0
scalar barabasi_100nodes_network.node[44].content_store 	decision_ratio[44] 	1
scalar barabasi_100nodes_network.node[45].core_layer 	interests[45] 	3142
scalar barabasi_100nodes_network.node[45].core_layer 	data[45] 	1927
scalar barabasi_100nodes_network.node[45].core_layer 	slots_sent[face$o[1]->client[45]] 	314200
scalar barabasi_100nodes_network.node[45].core_layer 	slots_sent[face$o[2]->node[2]] 	0
scalar barabasi_100nodes_network.node[45].content_store 	p_hit[45] 	0.38669637173775
scalar barabasi_100nodes_network.node[45].content_store 	hits[45] 	1215
scalar barabasi_100nodes_network.node[45].content_store 	misses[45] 	1927
scalar barabasi_100nodes_network.node[45].content_store 	decision_yes[45] 	1927
scalar barabasi_100nodes_network.node[45].content_store 	decision_no[45] 	0
scalar barabasi_100nodes_network.node[45].content_store 	decision_ratio[45] 	1
scalar barabasi_100nodes_network.node[46].core_layer 	interests[46] 	27636
scalar barabasi_100nodes_network.node[46].core_layer 	repo_load[46] 	23866
scalar barabasi_100nodes_network.node[46].core_layer 	data[46] 	2757
scalar barabasi_100nodes_network.node[46].core_layer 	slots_sent[face$o[1]->client[46]] 	320300
scalar barabasi_100nodes_network.node[46].core_layer 	slots_sent[face$o[2]->node[23]] 	2243100
scalar barabasi_100nodes_network.node[46].core_layer 	slots_sent[face$o[3]->node[82]] 	200200
scalar barabasi_100nodes_network.node[46].content_store 	p_hit[46] 	0.036655087566942
scalar barabasi_100nodes_network.node[46].content_store 	hits[46] 	1013
scalar barabasi_100nodes_network.node[46].content_store 	misses[46] 	26623
scalar barabasi_100nodes_network.node[46].content_store 	decision_yes[46] 	2757
scalar barabasi_100nodes_network.node[46].content_store 	decision_no[46] 	23866
scalar barabasi_100nodes_network.node[46].content_store 	decision_ratio[46] 	0.10355707470984
scalar barabasi_100nodes_network.node[47].core_layer 	interests[47] 	3181
scalar barabasi_100nodes_network.node[47].core_layer 	repo_load[47] 	576
scalar barabasi_100nodes_network.node[47].core_layer 	data[47] 	1504
scalar barabasi_100nodes_network.node[47].core_layer 	slots_sent[face$o[1]->client[47]] 	318100
scalar barabasi_100nodes_network.node[47].core_layer 	slots_sent[face$o[2]->node[23]] 	0
scalar barabasi_100nodes_network.node[47].content_store 	p_hit[47] 	0.34611757309022
scalar barabasi_100nodes_network.node[47].content_store 	hits[47] 	1101
scalar barabasi_100nodes_network.node[47].content_store 	misses[47] 	2080
scalar barabasi_100nodes_network.node[47].content_store 	decision_yes[47] 	1504
scalar barabasi_100nodes_network.node[47].content_store 	decision_no[47] 	576
scalar barabasi_100nodes_network.node[47].content_store 	decision_ratio[47] 	0.72307692307692
scalar barabasi_100nodes_network.node[48].core_layer 	interests[48] 	3274
scalar barabasi_100nodes_network.node[48].core_layer 	data[48] 	1959
scalar barabasi_100nodes_network.node[48].core_layer 	slots_sent[face$o[1]->client[48]] 	327400
scalar barabasi_100nodes_network.node[48].core_layer 	slots_sent[face$o[2]->node[41]] 	0
scalar barabasi_100nodes_network.node[48].content_store 	p_hit[48] 	0.40164935858277
scalar barabasi_100nodes_network.node[48].content_store 	hits[48] 	1315
scalar barabasi_100nodes_network.node[48].content_store 	misses[48] 	1959
scalar barabasi_100nodes_network.node[48].content_store 	decision_yes[48] 	1959
scalar barabasi_100nodes_network.node[48].content_store 	decision_no[48] 	0
scalar barabasi_100nodes_network.node[48].content_store 	decision_ratio[48] 	1
scalar barabasi_100nodes_network.node[49].core_layer 	interests[49] 	3231
scalar barabasi_100nodes_network.node[49].core_layer 	data[49] 	2018
scalar barabasi_100nodes_network.node[49].core_layer 	slots_sent[face$o[1]->client[49]] 	323100
scalar barabasi_100nodes_network.node[49].core_layer 	slots_sent[face$o[2]->node[7]] 	0
scalar barabasi_100nodes_network.node[49].content_store 	p_hit[49] 	0.37542556484061
scalar barabasi_100nodes_network.node[49].content_store 	hits[49] 	1213
scalar barabasi_100nodes_network.node[49].content_store 	misses[49] 	2018
scalar barabasi_100nodes_network.node[49].content_store 	decision_yes[49] 	2018
scalar barabasi_100nodes_network.node[49].content_store 	decision_no[49] 	0
scalar barabasi_100nodes_network.node[49].content_store 	decision_ratio[49] 	1
scalar barabasi_100nodes_network.node[50].core_layer 	interests[50] 	3200
scalar barabasi_100nodes_network.node[50].core_layer 	data[50] 	1988
scalar barabasi_100nodes_network.node[50].core_layer 	slots_sent[face$o[1]->client[50]] 	320000
scalar barabasi_100nodes_network.node[50].core_layer 	slots_sent[face$o[2]->node[35]] 	0
scalar barabasi_100nodes_network.node[50].content_store 	p_hit[50] 	0.37875
scalar barabasi_100nodes_network.node[50].content_store 	hits[50] 	1212
scalar barabasi_100nodes_network.node[50].content_store 	misses[50] 	1988
scalar barabasi_100nodes_network.node[50].content_store 	decision_yes[50] 	1988
scalar barabasi_100nodes_network.node[50].content_store 	decision_no[50] 	0
scalar barabasi_100nodes_network.node[50].content_store 	decision_ratio[50] 	1
scalar barabasi_100nodes_network.node[51].core_layer 	interests[51] 	3117
scalar barabasi_100nodes_network.node[51].core_layer 	data[51] 	1913
scalar barabasi_100nodes_network.node[51].core_layer 	slots_sent[face$o[1]->client[51]] 	311700
scalar barabasi_100nodes_network.node[51].core_layer 	slots_sent[face$o[2]->node[23]] 	0
scalar barabasi_100nodes_network.node[51].content_store 	p_hit[51] 	0.38626884825152
[...]
scalar barabasi_100nodes_network.client[8] 	hdistance[8].real 	1.4310823311748
scalar barabasi_100nodes_network.client[8] 	downloads[8].real 	3243
scalar barabasi_100nodes_network.client[8] 	avg_time[8].real 	0
scalar barabasi_100nodes_network.client[9] 	hdistance[9].real 	2.2730627306273
scalar barabasi_100nodes_network.client[9] 	downloads[9].real 	3252
scalar barabasi_100nodes_network.client[9] 	avg_time[9].real 	0
scalar barabasi_100nodes_network.client[10] 	hdistance[10].real 	1.4280542986425
scalar barabasi_100nodes_network.client[10] 	downloads[10].real 	3315
scalar barabasi_100nodes_network.client[10] 	avg_time[10].real 	0
scalar barabasi_100nodes_network.client[11] 	hdistance[11].real 	1.8608385370205
scalar barabasi_100nodes_network.client[11] 	downloads[11].real 	3363
scalar barabasi_100nodes_network.client[11] 	avg_time[11].real 	0
scalar barabasi_100nodes_network.client[12] 	hdistance[12].real 	2.0847559149446
scalar barabasi_100nodes_network.client[12] 	downloads[12].real 	3339
scalar barabasi_100nodes_network.client[12] 	avg_time[12].real 	0
scalar barabasi_100nodes_network.client[13] 	hdistance[13].real 	1.348261638185
scalar barabasi_100nodes_network.client[13] 	downloads[13].real 	3394
scalar barabasi_100nodes_network.client[13] 	avg_time[13].real 	0
scalar barabasi_100nodes_network.client[14] 	hdistance[14].real 	1.7950367647059
scalar barabasi_100nodes_network.client[14] 	downloads[14].real 	3264
scalar barabasi_100nodes_network.client[14] 	avg_time[14].real 	0
scalar barabasi_100nodes_network.client[15] 	hdistance[15].real 	1.4718966035467
scalar barabasi_100nodes_network.client[15] 	downloads[15].real 	3327
scalar barabasi_100nodes_network.client[15] 	avg_time[15].real 	0
scalar barabasi_100nodes_network.client[16] 	hdistance[16].real 	1.4628766697732
scalar barabasi_100nodes_network.client[16] 	downloads[16].real 	3219
scalar barabasi_100nodes_network.client[16] 	avg_time[16].real 	0
scalar barabasi_100nodes_network.client[17] 	hdistance[17].real 	1.848016954284
scalar barabasi_100nodes_network.client[17] 	downloads[17].real 	3303
scalar barabasi_100nodes_network.client[17] 	avg_time[17].real 	0
scalar barabasi_100nodes_network.client[18] 	hdistance[18].real 	1.4983185570162
scalar barabasi_100nodes_network.client[18] 	downloads[18].real 	3271
scalar barabasi_100nodes_network.client[18] 	avg_time[18].real 	0
scalar barabasi_100nodes_network.client[19] 	hdistance[19].real 	1.9907545481658
scalar barabasi_100nodes_network.client[19] 	downloads[19].real 	3353
scalar barabasi_100nodes_network.client[19] 	avg_time[19].real 	0
scalar barabasi_100nodes_network.client[20] 	hdistance[20].real 	2.07456404089
scalar barabasi_100nodes_network.client[20] 	downloads[20].real 	3326
scalar barabasi_100nodes_network.client[20] 	avg_time[20].real 	0
scalar barabasi_100nodes_network.client[21] 	hdistance[21].real 	1.7221705426357
scalar barabasi_100nodes_network.client[21] 	downloads[21].real 	3225
scalar barabasi_100nodes_network.client[21] 	avg_time[21].real 	0
scalar barabasi_100nodes_network.client[22] 	hdistance[22].real 	1.7701043585022
scalar barabasi_100nodes_network.client[22] 	downloads[22].real 	3258
scalar barabasi_100nodes_network.client[22] 	avg_time[22].real 	0
scalar barabasi_100nodes_network.client[23] 	hdistance[23].real 	1.2904238618524
scalar barabasi_100nodes_network.client[23] 	downloads[23].real 	3185
scalar barabasi_100nodes_network.client[23] 	avg_time[23].real 	0
scalar barabasi_100nodes_network.client[24] 	hdistance[24].real 	2.3406455656534
scalar barabasi_100nodes_network.client[24] 	downloads[24].real 	3191
scalar barabasi_100nodes_network.client[24] 	avg_time[24].real 	0
scalar barabasi_100nodes_network.client[25] 	hdistance[25].real 	1.5073439412485
scalar barabasi_100nodes_network.client[25] 	downloads[25].real 	3268
scalar barabasi_100nodes_network.client[25] 	avg_time[25].real 	0
scalar barabasi_100nodes_network.client[26] 	hdistance[26].real 	1.4833682948756
scalar barabasi_100nodes_network.client[26] 	downloads[26].real 	3337
scalar barabasi_100nodes_network.client[26] 	avg_time[26].real 	0
scalar barabasi_100nodes_network.client[27] 	hdistance[27].real 	2.0719579987647
scalar barabasi_100nodes_network.client[27] 	downloads[27].real 	3238
scalar barabasi_100nodes_network.client[27] 	avg_time[27].real 	0
scalar barabasi_100nodes_network.client[28] 	hdistance[28].real 	1.8340374170187
scalar barabasi_100nodes_network.client[28] 	downloads[28].real 	3314
scalar barabasi_100nodes_network.client[28] 	avg_time[28].real 	0
scalar barabasi_100nodes_network.client[29] 	hdistance[29].real 	1.6228840125392
scalar barabasi_100nodes_network.client[29] 	downloads[29].real 	3190
scalar barabasi_100nodes_network.client[29] 	avg_time[29].real 	0
scalar barabasi_100nodes_network.client[30] 	hdistance[30].real 	2.0541344437835
scalar barabasi_100nodes_network.client[30] 	downloads[30].real 	3362
scalar barabasi_100nodes_network.client[30] 	avg_time[30].real 	0
scalar barabasi_100nodes_network.client[31] 	hdistance[31].real 	1.5985629490784
scalar barabasi_100nodes_network.client[31] 	downloads[31].real 	3201
scalar barabasi_100nodes_network.client[31] 	avg_time[31].real 	0
scalar barabasi_100nodes_network.client[32] 	hdistance[32].real 	1.5113846153846
scalar barabasi_100nodes_network.client[32] 	downloads[32].real 	3250
scalar barabasi_100nodes_network.client[32] 	avg_time[32].real 	0
scalar barabasi_100nodes_network.client[33] 	hdistance[33].real 	1.5807795299018
scalar barabasi_100nodes_network.client[33] 	downloads[33].real 	3361
scalar barabasi_100nodes_network.client[33] 	avg_time[33].real 	0
scalar barabasi_100nodes_network.client[34] 	hdistance[34].real 	1.643766656796
scalar barabasi_100nodes_network.client[34] 	downloads[34].real 	3377
scalar barabasi_100nodes_network.client[34] 	avg_time[34].real 	0
scalar barabasi_100nodes_network.client[35] 	hdistance[35].real 	2.2512195121951
scalar barabasi_100nodes_network.client[35] 	downloads[35].real 	3280
scalar barabasi_100nodes_network.client[35] 	avg_time[35].real 	0
scalar barabasi_100nodes_network.client[36] 	hdistance[36].real 	1.5567331670823
scalar barabasi_100nodes_network.client[36] 	downloads[36].real 	3208
scalar barabasi_100nodes_network.client[36] 	avg_time[36].real 	0
scalar barabasi_100nodes_network.client[37] 	hdistance[37].real 	1.7360219981668
scalar barabasi_100nodes_network.client[37] 	downloads[37].real 	3273
scalar barabasi_100nodes_network.client[37] 	avg_time[37].real 	0
scalar barabasi_100nodes_network.client[38] 	hdistance[38].real 	2.095646842428
scalar barabasi_100nodes_network.client[38] 	downloads[38].real 	3262
scalar barabasi_100nodes_network.client[38] 	avg_time[38].real 	0
scalar barabasi_100nodes_network.client[39] 	hdistance[39].real 	2.0110667076545
scalar barabasi_100nodes_network.client[39] 	downloads[39].real 	3253
scalar barabasi_100nodes_network.client[39] 	avg_time[39].real 	0
scalar barabasi_100nodes_network.client[40] 	hdistance[40].real 	1.9550492610837
scalar barabasi_100nodes_network.client[40] 	downloads[40].real 	3248
scalar barabasi_100nodes_network.client[40] 	avg_time[40].real 	0
scalar barabasi_100nodes_network.client[41] 	hdistance[41].real 	1.1212403100775
scalar barabasi_100nodes_network.client[41] 	downloads[41].real 	3225
scalar barabasi_100nodes_network.client[41] 	avg_time[41].real 	0
scalar barabasi_100nodes_network.client[42] 	hdistance[42].real 	1.6867003867896
scalar barabasi_100nodes_network.client[42] 	downloads[42].real 	3361
scalar barabasi_100nodes_network.client[42] 	avg_time[42].real 	0
scalar barabasi_100nodes_network.client[43] 	hdistance[43].real 	2.0893501805054
scalar barabasi_100nodes_network.client[43] 	downloads[43].real 	3324
scalar barabasi_100nodes_network.client[43] 	avg_time[43].real 	0
scalar barabasi_100nodes_network.client[44] 	hdistance[44].real 	1.7623179423613
scalar barabasi_100nodes_network.client[44] 	downloads[44].real 	3227
scalar barabasi_100nodes_network.client[44] 	avg_time[44].real 	0
scalar barabasi_100nodes_network.client[45] 	hdistance[45].real 	1.6053469127944
scalar barabasi_100nodes_network.client[45] 	downloads[45].real 	3142
scalar barabasi_100nodes_network.client[45] 	avg_time[45].real 	0
scalar barabasi_100nodes_network.client[46] 	hdistance[46].real 	1.8791757727131
scalar barabasi_100nodes_network.client[46] 	downloads[46].real 	3203
scalar barabasi_100nodes_network.client[46] 	avg_time[46].real 	0
scalar barabasi_100nodes_network.client[47] 	hdistance[47].real 	1.5149324111914
scalar barabasi_100nodes_network.client[47] 	downloads[47].real 	3181
scalar barabasi_100nodes_network.client[47] 	avg_time[47].real 	0
scalar barabasi_100nodes_network.client[48] 	hdistance[48].real 	1.6215638362859
scalar barabasi_100nodes_network.client[48] 	downloads[48].real 	3274
scalar barabasi_100nodes_network.client[48] 	avg_time[48].real 	0
scalar barabasi_100nodes_network.client[49] 	hdistance[49].real 	1.7010213556175
scalar barabasi_100nodes_network.client[49] 	downloads[49].real 	3231
scalar barabasi_100nodes_network.client[49] 	avg_time[49].real 	0
scalar barabasi_100nodes_network.client[50] 	hdistance[50].real 	2.9834375
scalar barabasi_100nodes_network.client[50] 	downloads[50].real 	3200
scalar barabasi_100nodes_network.client[50] 	avg_time[50].real 	0
scalar barabasi_100nodes_network.client[51] 	hdistance[51].real 	1.8896374719281
scalar barabasi_100nodes_network.client[51] 	downloads[51].real 	3117
scalar barabasi_100nodes_network.client[51] 	avg_time[51].real 	0
scalar barabasi_100nodes_network.client[52] 	hdistance[52].real 	2.1438147471054
scalar barabasi_100nodes_network.client[52] 	downloads[52].real 	3282
scalar barabasi_100nodes_network.client[52] 	avg_time[52].real 	0
scalar barabasi_100nodes_network.client[53] 	hdistance[53].real 	2.1621787025704
scalar barabasi_100nodes_network.client[53] 	downloads[53].real 	3268
scalar barabasi_100nodes_network.client[53] 	avg_time[53].real 	0
scalar barabasi_100nodes_network.client[54] 	hdistance[54].real 	1.6194550063371
scalar barabasi_100nodes_network.client[54] 	downloads[54].real 	3156
scalar barabasi_100nodes_network.client[54] 	avg_time[54].real 	0
scalar barabasi_100nodes_network.client[55] 	hdistance[55].real 	1.6153846153846
scalar barabasi_100nodes_network.client[55] 	downloads[55].real 	3237
scalar barabasi_100nodes_network.client[55] 	avg_time[55].real 	0
scalar barabasi_100nodes_network.client[56] 	hdistance[56].real 	1.9696782178218
scalar barabasi_100nodes_network.client[56] 	downloads[56].real 	3232
scalar barabasi_100nodes_network.client[56] 	avg_time[56].real 	0
scalar barabasi_100nodes_network.client[57] 	hdistance[57].real 	2.3704503392967
scalar barabasi_100nodes_network.client[57] 	downloads[57].real 	3242
scalar barabasi_100nodes_network.client[57] 	avg_time[57].real 	0
scalar barabasi_100nodes_network.client[58] 	hdistance[58].real 	1.7748786407767
scalar barabasi_100nodes_network.client[58] 	downloads[58].real 	3296
scalar barabasi_100nodes_network.client[58] 	avg_time[58].real 	0
scalar barabasi_100nodes_network.client[59] 	hdistance[59].real 	1.5771670190275
scalar barabasi_100nodes_network.client[59] 	downloads[59].real 	3311
scalar barabasi_100nodes_network.client[59] 	avg_time[59].real 	0
scalar barabasi_100nodes_network.client[60] 	hdistance[60].real 	2.7150668286756
scalar barabasi_100nodes_network.client[60] 	downloads[60].real 	3292
scalar barabasi_100nodes_network.client[60] 	avg_time[60].real 	0
scalar barabasi_100nodes_network.client[61] 	hdistance[61].real 	2.0745003028468
scalar barabasi_100nodes_network.client[61] 	downloads[61].real 	3302
scalar barabasi_100nodes_network.client[61] 	avg_time[61].real 	0
scalar barabasi_100nodes_network.client[62] 	hdistance[62].real 	1.5475389789055
scalar barabasi_100nodes_network.client[62] 	downloads[62].real 	3271
scalar barabasi_100nodes_network.client[62] 	avg_time[62].real 	0
scalar barabasi_100nodes_network.client[63] 	hdistance[63].real 	2.5818632002476
scalar barabasi_100nodes_network.client[63] 	downloads[63].real 	3231
scalar barabasi_100nodes_network.client[63] 	avg_time[63].real 	0
scalar barabasi_100nodes_network.client[64] 	hdistance[64].real 	2.1203411244473
scalar barabasi_100nodes_network.client[64] 	downloads[64].real 	3166
scalar barabasi_100nodes_network.client[64] 	avg_time[64].real 	0
scalar barabasi_100nodes_network.client[65] 	hdistance[65].real 	2.0824295010846
scalar barabasi_100nodes_network.client[65] 	downloads[65].real 	3227
scalar barabasi_100nodes_network.client[65] 	avg_time[65].real 	0
scalar barabasi_100nodes_network.client[66] 	hdistance[66].real 	2.0789156626506
scalar barabasi_100nodes_network.client[66] 	downloads[66].real 	3320
scalar barabasi_100nodes_network.client[66] 	avg_time[66].real 	0
scalar barabasi_100nodes_network.client[67] 	hdistance[67].real 	1.8847898397339
scalar barabasi_100nodes_network.client[67] 	downloads[67].real 	3307
scalar barabasi_100nodes_network.client[67] 	avg_time[67].real 	0
scalar barabasi_100nodes_network.client[68] 	hdistance[68].real 	2.1018518518518
scalar barabasi_100nodes_network.client[68] 	downloads[68].real 	3240
scalar barabasi_100nodes_network.client[68] 	avg_time[68].real 	0
scalar barabasi_100nodes_network.client[69] 	hdistance[69].real 	1.5500157778479
scalar barabasi_100nodes_network.client[69] 	downloads[69].real 	3169
scalar barabasi_100nodes_network.client[69] 	avg_time[69].real 	0
scalar barabasi_100nodes_network.client[70] 	hdistance[70].real 	2.6009118541033
scalar barabasi_100nodes_network.client[70] 	downloads[70].real 	3290
scalar barabasi_100nodes_network.client[70] 	avg_time[70].real 	0
scalar barabasi_100nodes_network.client[71] 	hdistance[71].real 	2.0498442367601
scalar barabasi_100nodes_network.client[71] 	downloads[71].real 	3210
scalar barabasi_100nodes_network.client[71] 	avg_time[71].real 	0
scalar barabasi_100nodes_network.client[72] 	hdistance[72].real 	2.1102385986107
scalar barabasi_100nodes_network.client[72] 	downloads[72].real 	3311
scalar barabasi_100nodes_network.client[72] 	avg_time[72].real 	0
scalar barabasi_100nodes_network.client[73] 	hdistance[73].real 	1.7736021998167
scalar barabasi_100nodes_network.client[73] 	downloads[73].real 	3273
scalar barabasi_100nodes_network.client[73] 	avg_time[73].real 	0
scalar barabasi_100nodes_network.client[74] 	hdistance[74].real 	1.7810559006211
scalar barabasi_100nodes_network.client[74] 	downloads[74].real 	3220
scalar barabasi_100nodes_network.client[74] 	avg_time[74].real 	0
scalar barabasi_100nodes_network.client[75] 	hdistance[75].real 	2.1611360239163
scalar barabasi_100nodes_network.client[75] 	downloads[75].real 	3345
scalar barabasi_100nodes_network.client[75] 	avg_time[75].real 	0
scalar barabasi_100nodes_network.client[76] 	hdistance[76].real 	2.4115099009901
scalar barabasi_100nodes_network.client[76] 	downloads[76].real 	3232
scalar barabasi_100nodes_network.client[76] 	avg_time[76].real 	0
scalar barabasi_100nodes_network.client[77] 	hdistance[77].real 	2.1601598524439
scalar barabasi_100nodes_network.client[77] 	downloads[77].real 	3253
scalar barabasi_100nodes_network.client[77] 	avg_time[77].real 	0
scalar barabasi_100nodes_network.client[78] 	hdistance[78].real 	1.7630288166769
scalar barabasi_100nodes_network.client[78] 	downloads[78].real 	3262
scalar barabasi_100nodes_network.client[78] 	avg_time[78].real 	0
scalar barabasi_100nodes_network.client[79] 	hdistance[79].real 	1.5906221821461
scalar barabasi_100nodes_network.client[79] 	downloads[79].real 	3327
scalar barabasi_100nodes_network.client[79] 	avg_time[79].real 	0
scalar barabasi_100nodes_network.client[80] 	hdistance[80].real 	2.5632357380018
scalar barabasi_100nodes_network.client[80] 	downloads[80].real 	3313
scalar barabasi_100nodes_network.client[80] 	avg_time[80].real 	0
scalar barabasi_100nodes_network.client[81] 	hdistance[81].real 	1.9174174174174
scalar barabasi_100nodes_network.client[81] 	downloads[81].real 	3330
scalar barabasi_100nodes_network.client[81] 	avg_time[81].real 	0
scalar barabasi_100nodes_network.client[82] 	hdistance[82].real 	2.3646838990969
scalar barabasi_100nodes_network.client[82] 	downloads[82].real 	3211
scalar barabasi_100nodes_network.client[82] 	avg_time[82].real 	0
scalar barabasi_100nodes_network.client[83] 	hdistance[83].real 	1.8902068126521
scalar barabasi_100nodes_network.client[83] 	downloads[83].real 	3288
scalar barabasi_100nodes_network.client[83] 	avg_time[83].real 	0
scalar barabasi_100nodes_network.client[84] 	hdistance[84].real 	2.1127406049496
scalar barabasi_100nodes_network.client[84] 	downloads[84].real 	3273
scalar barabasi_100nodes_network.client[84] 	avg_time[84].real 	0
scalar barabasi_100nodes_network.client[85] 	hdistance[85].real 	1.9975377039089
scalar barabasi_100nodes_network.client[85] 	downloads[85].real 	3249
scalar barabasi_100nodes_network.client[85] 	avg_time[85].real 	0
scalar barabasi_100nodes_network.client[86] 	hdistance[86].real 	1.9210363972856
scalar barabasi_100nodes_network.client[86] 	downloads[86].real 	3242
scalar barabasi_100nodes_network.client[86] 	avg_time[86].real 	0
scalar barabasi_100nodes_network.client[87] 	hdistance[87].real 	2.3587124729186
scalar barabasi_100nodes_network.client[87] 	downloads[87].real 	3231
scalar barabasi_100nodes_network.client[87] 	avg_time[87].real 	0
scalar barabasi_100nodes_network.client[88] 	hdistance[88].real 	2.6915056731064
scalar barabasi_100nodes_network.client[88] 	downloads[88].real 	3261
scalar barabasi_100nodes_network.client[88] 	avg_time[88].real 	0
scalar barabasi_100nodes_network.client[89] 	hdistance[89].real 	2.2399238337036
scalar barabasi_100nodes_network.client[89] 	downloads[89].real 	3151
scalar barabasi_100nodes_network.client[89] 	avg_time[89].real 	0
scalar barabasi_100nodes_network.client[90] 	hdistance[90].real 	1.6177884615385
scalar barabasi_100nodes_network.client[90] 	downloads[90].real 	3328
scalar barabasi_100nodes_network.client[90] 	avg_time[90].real 	0
scalar barabasi_100nodes_network.client[91] 	hdistance[91].real 	2.0928891736067
scalar barabasi_100nodes_network.client[91] 	downloads[91].real 	3122
scalar barabasi_100nodes_network.client[91] 	avg_time[91].real 	0
scalar barabasi_100nodes_network.client[92] 	hdistance[92].real 	2.7893258426966
scalar barabasi_100nodes_network.client[92] 	downloads[92].real 	3204
scalar barabasi_100nodes_network.client[92] 	avg_time[92].real 	0
scalar barabasi_100nodes_network.client[93] 	hdistance[93].real 	1.8024007386888
scalar barabasi_100nodes_network.client[93] 	downloads[93].real 	3249
scalar barabasi_100nodes_network.client[93] 	avg_time[93].real 	0
scalar barabasi_100nodes_network.client[94] 	hdistance[94].real 	2.4147900182593
scalar barabasi_100nodes_network.client[94] 	downloads[94].real 	3286
scalar barabasi_100nodes_network.client[94] 	avg_time[94].real 	0
scalar barabasi_100nodes_network.client[95] 	hdistance[95].real 	2.2378972378972
scalar barabasi_100nodes_network.client[95] 	downloads[95].real 	3367
scalar barabasi_100nodes_network.client[95] 	avg_time[95].real 	0
scalar barabasi_100nodes_network.client[96] 	hdistance[96].real 	2.6106941838649
scalar barabasi_100nodes_network.client[96] 	downloads[96].real 	3198
scalar barabasi_100nodes_network.client[96] 	avg_time[96].real 	0
scalar barabasi_100nodes_network.client[97] 	hdistance[97].real 	2.2082937638493
scalar barabasi_100nodes_network.client[97] 	downloads[97].real 	3159
scalar barabasi_100nodes_network.client[97] 	avg_time[97].real 	0
scalar barabasi_100nodes_network.client[98] 	hdistance[98].real 	2.6958256599141
scalar barabasi_100nodes_network.client[98] 	downloads[98].real 	3258
scalar barabasi_100nodes_network.client[98] 	avg_time[98].real 	0
scalar barabasi_100nodes_network.client[99] 	hdistance[99].real 	2.6762899262899
scalar barabasi_100nodes_network.client[99] 	downloads[99].real 	3256
scalar barabasi_100nodes_network.client[99] 	avg_time[99].real 	0
