version 2
run General-548-20140424-12:55:09-13245
attr D prob_cache
attr F nrr
attr R lru
attr a 0
attr configname General
attr csize 10
attr ctlg 10^3
attr datetime 20140424-12:55:09
attr experiment General
attr inifile omnetpp.ini
attr iterationvars "$net=simple_scenario, $rep=3, $priceratiovalue=7, $a=0, $ctlg=10^3, $F=nrr, $ttl=1000, $D=prob_cache, $R=lru, $csize=10"
attr iterationvars2 "$net=simple_scenario, $rep=3, $priceratiovalue=7, $a=0, $ctlg=10^3, $F=nrr, $ttl=1000, $D=prob_cache, $R=lru, $csize=10, $repetition=0"
attr measurement "$net=simple_scenario, $rep=3, $priceratiovalue=7, $a=0, $ctlg=10^3, $F=nrr, $ttl=1000, $D=prob_cache, $R=lru, $csize=10"
attr net simple_scenario
attr network networks.${net=simple_scenario}_network
attr priceratiovalue 7
attr processid 13245
attr rep 3
attr repetition 0
attr replication #0
attr resultdir results
attr runnumber 548
attr seedset 3
attr ttl 1000

scalar . 	a 	0
scalar . 	csize 	10
scalar . 	priceratiovalue 	7
scalar . 	rep 	3
scalar . 	ttl 	1000
scalar simple_scenario_network.content_distribution 	repo-0 	3
scalar simple_scenario_network.content_distribution 	repo-1 	4
scalar simple_scenario_network.content_distribution 	client-0 	0
scalar simple_scenario_network.content_distribution 	repo-0_card 	524
scalar simple_scenario_network.content_distribution 	repo-1_card 	476
scalar simple_scenario_network.statistics 	p_hit 	0.0096460115315139
scalar simple_scenario_network.statistics 	interests 	106178.6
scalar simple_scenario_network.statistics 	data 	70330
scalar simple_scenario_network.statistics 	hdistance 	2.9332916766624
scalar simple_scenario_network.statistics 	avg_time 	0.001999724507
scalar simple_scenario_network.statistics 	downloads 	179243
scalar simple_scenario_network.statistics 	total_cost 	83843
scalar simple_scenario_network.node[0].core_layer 	interests[0] 	179243
scalar simple_scenario_network.node[0].core_layer 	data[0] 	177528
scalar simple_scenario_network.node[0].core_layer 	repo_int[0] 	174122
scalar simple_scenario_network.node[0].content_store 	p_hit[0] 	0.0095680166031588
scalar simple_scenario_network.node[0].content_store 	hits[0] 	1715
scalar simple_scenario_network.node[0].content_store 	misses[0] 	177528
scalar simple_scenario_network.node[1].core_layer 	interests[1] 	93056
scalar simple_scenario_network.node[1].core_layer 	data[1] 	91350
scalar simple_scenario_network.node[1].content_store 	p_hit[1] 	0.018333046767538
scalar simple_scenario_network.node[1].content_store 	hits[1] 	1706
scalar simple_scenario_network.node[1].content_store 	misses[1] 	91350
scalar simple_scenario_network.node[2].core_layer 	interests[2] 	84472
scalar simple_scenario_network.node[2].core_layer 	data[2] 	82772
scalar simple_scenario_network.node[2].content_store 	p_hit[2] 	0.020125011838242
scalar simple_scenario_network.node[2].content_store 	hits[2] 	1700
scalar simple_scenario_network.node[2].content_store 	misses[2] 	82772
scalar simple_scenario_network.node[3].core_layer 	interests[3] 	91350
scalar simple_scenario_network.node[3].core_layer 	repo_load[3] 	91350
scalar simple_scenario_network.node[3].core_layer 	data[3] 	0
scalar simple_scenario_network.node[3].content_store 	p_hit[3] 	0
scalar simple_scenario_network.node[3].content_store 	hits[3] 	0
scalar simple_scenario_network.node[3].content_store 	misses[3] 	91350
scalar simple_scenario_network.node[4].core_layer 	interests[4] 	82772
scalar simple_scenario_network.node[4].core_layer 	repo_load[4] 	82772
scalar simple_scenario_network.node[4].core_layer 	data[4] 	0
scalar simple_scenario_network.node[4].content_store 	p_hit[4] 	0
scalar simple_scenario_network.node[4].content_store 	hits[4] 	0
scalar simple_scenario_network.node[4].content_store 	misses[4] 	82772
scalar simple_scenario_network.client[0] 	hdistance[0] 	2.9332916766624
scalar simple_scenario_network.client[0] 	downloads[0] 	179243
scalar simple_scenario_network.client[0] 	avg_time[0] 	0.001999724507
