version 2
run General-1786-20140502-04:32:00-10717
attr D costprob0.005
attr F nrr
attr R lru
attr a 1
attr configname General
attr csize 1e3
attr ctlg 1e5
attr datetime 20140502-04:32:00
attr experiment General
attr inifile omnetpp.ini
attr iterationvars "$net=three_caches_scenario_3_links, $rep=4, $priceratiovalue=1, $weights=0.2_0.4_0.4, $a=1, $ctlg=1e5, $F=nrr, $ttl=1000, $D=costprob0.005, $xi=1, $R=lru, $csize=1e3"
attr iterationvars2 "$net=three_caches_scenario_3_links, $rep=4, $priceratiovalue=1, $weights=0.2_0.4_0.4, $a=1, $ctlg=1e5, $F=nrr, $ttl=1000, $D=costprob0.005, $xi=1, $R=lru, $csize=1e3, $repetition=0"
attr measurement "$net=three_caches_scenario_3_links, $rep=4, $priceratiovalue=1, $weights=0.2_0.4_0.4, $a=1, $ctlg=1e5, $F=nrr, $ttl=1000, $D=costprob0.005, $xi=1, $R=lru, $csize=1e3"
attr net three_caches_scenario_3_links
attr network networks.${net=three_caches_scenario_3_links}_network
attr priceratiovalue 1
attr processid 10717
attr rep 4
attr repetition 0
attr replication #0
attr resultdir results
attr runnumber 1786
attr seedset 4
attr ttl 1000
attr weights 0.2_0.4_0.4
attr xi 1

scalar . 	a 	1
scalar . 	csize 	1e3
scalar . 	ctlg 	1e5
scalar . 	priceratiovalue 	1
scalar . 	rep 	4
scalar . 	ttl 	1000
scalar . 	xi 	1
scalar three_caches_scenario_3_links_network.content_distribution 	repo-0 	4
scalar three_caches_scenario_3_links_network.content_distribution 	repo-1 	5
scalar three_caches_scenario_3_links_network.content_distribution 	repo-2 	6
scalar three_caches_scenario_3_links_network.content_distribution 	client-0 	0
scalar three_caches_scenario_3_links_network.content_distribution 	repo-0_card 	20142
scalar three_caches_scenario_3_links_network.content_distribution 	repo-1_card 	39937
scalar three_caches_scenario_3_links_network.content_distribution 	repo-2_card 	39921
scalar three_caches_scenario_3_links_network.statistics 	p_hit 	0.15121921004274
scalar three_caches_scenario_3_links_network.statistics 	interests 	62271
scalar three_caches_scenario_3_links_network.statistics 	data 	36589.571428571
scalar three_caches_scenario_3_links_network.statistics 	hdistance 	1.7687322690104
scalar three_caches_scenario_3_links_network.statistics 	avg_time 	0
scalar three_caches_scenario_3_links_network.statistics 	downloads 	179770
scalar three_caches_scenario_3_links_network.statistics 	total_cost 	61838
scalar three_caches_scenario_3_links_network.statistics 	total_replicas 	100000
scalar three_caches_scenario_3_links_network.statistics 	interests_sent 	179770
scalar three_caches_scenario_3_links_network.node[0].core_layer 	interests[0] 	179770
scalar three_caches_scenario_3_links_network.node[0].core_layer 	data[0] 	142273
scalar three_caches_scenario_3_links_network.node[0].core_layer 	repo_int[0] 	113854
scalar three_caches_scenario_3_links_network.node[0].content_store 	p_hit[0] 	0.2085831896312
scalar three_caches_scenario_3_links_network.node[0].content_store 	hits[0] 	37497
scalar three_caches_scenario_3_links_network.node[0].content_store 	misses[0] 	142273
scalar three_caches_scenario_3_links_network.node[0].content_store 	decision_yes[0] 	429
scalar three_caches_scenario_3_links_network.node[0].content_store 	decision_no[0] 	141844
scalar three_caches_scenario_3_links_network.node[1].core_layer 	interests[1] 	52016
scalar three_caches_scenario_3_links_network.node[1].core_layer 	data[1] 	52016
scalar three_caches_scenario_3_links_network.node[1].content_store 	p_hit[1] 	0
scalar three_caches_scenario_3_links_network.node[1].content_store 	hits[1] 	0
scalar three_caches_scenario_3_links_network.node[1].content_store 	misses[1] 	52016
scalar three_caches_scenario_3_links_network.node[1].content_store 	decision_yes[1] 	0
scalar three_caches_scenario_3_links_network.node[1].content_store 	decision_no[1] 	52016
scalar three_caches_scenario_3_links_network.node[2].core_layer 	interests[2] 	48007
scalar three_caches_scenario_3_links_network.node[2].core_layer 	data[2] 	31557
scalar three_caches_scenario_3_links_network.node[2].content_store 	p_hit[2] 	0.34265836232216
scalar three_caches_scenario_3_links_network.node[2].content_store 	hits[2] 	16450
scalar three_caches_scenario_3_links_network.node[2].content_store 	misses[2] 	31557
scalar three_caches_scenario_3_links_network.node[2].content_store 	decision_yes[2] 	185
scalar three_caches_scenario_3_links_network.node[2].content_store 	decision_no[2] 	31372
scalar three_caches_scenario_3_links_network.node[3].core_layer 	interests[3] 	42250
scalar three_caches_scenario_3_links_network.node[3].core_layer 	data[3] 	30281
scalar three_caches_scenario_3_links_network.node[3].content_store 	p_hit[3] 	0.2832899408284
scalar three_caches_scenario_3_links_network.node[3].content_store 	hits[3] 	11969
scalar three_caches_scenario_3_links_network.node[3].content_store 	misses[3] 	30281
scalar three_caches_scenario_3_links_network.node[3].content_store 	decision_yes[3] 	179
scalar three_caches_scenario_3_links_network.node[3].content_store 	decision_no[3] 	30102
scalar three_caches_scenario_3_links_network.node[4].core_layer 	interests[4] 	52016
scalar three_caches_scenario_3_links_network.node[4].core_layer 	repo_load[4] 	52016
scalar three_caches_scenario_3_links_network.node[4].core_layer 	data[4] 	0
scalar three_caches_scenario_3_links_network.node[4].content_store 	p_hit[4] 	0
scalar three_caches_scenario_3_links_network.node[4].content_store 	hits[4] 	0
scalar three_caches_scenario_3_links_network.node[4].content_store 	misses[4] 	52016
scalar three_caches_scenario_3_links_network.node[4].content_store 	decision_yes[4] 	0
scalar three_caches_scenario_3_links_network.node[4].content_store 	decision_no[4] 	52016
scalar three_caches_scenario_3_links_network.node[5].core_layer 	interests[5] 	31557
scalar three_caches_scenario_3_links_network.node[5].core_layer 	repo_load[5] 	31557
scalar three_caches_scenario_3_links_network.node[5].core_layer 	data[5] 	0
scalar three_caches_scenario_3_links_network.node[5].content_store 	p_hit[5] 	0
scalar three_caches_scenario_3_links_network.node[5].content_store 	hits[5] 	0
scalar three_caches_scenario_3_links_network.node[5].content_store 	misses[5] 	31557
scalar three_caches_scenario_3_links_network.node[5].content_store 	decision_yes[5] 	0
scalar three_caches_scenario_3_links_network.node[5].content_store 	decision_no[5] 	31557
scalar three_caches_scenario_3_links_network.node[6].core_layer 	interests[6] 	30281
scalar three_caches_scenario_3_links_network.node[6].core_layer 	repo_load[6] 	30281
scalar three_caches_scenario_3_links_network.node[6].core_layer 	data[6] 	0
scalar three_caches_scenario_3_links_network.node[6].content_store 	p_hit[6] 	0
scalar three_caches_scenario_3_links_network.node[6].content_store 	hits[6] 	0
scalar three_caches_scenario_3_links_network.node[6].content_store 	misses[6] 	30281
scalar three_caches_scenario_3_links_network.node[6].content_store 	decision_yes[6] 	0
scalar three_caches_scenario_3_links_network.node[6].content_store 	decision_no[6] 	30281
scalar three_caches_scenario_3_links_network.client[0] 	hdistance[0] 	1.7687322690104
scalar three_caches_scenario_3_links_network.client[0] 	downloads[0] 	179770
scalar three_caches_scenario_3_links_network.client[0] 	avg_time[0] 	0
scalar three_caches_scenario_3_links_network.client[0] 	interests_sent[0] 	179770
