version 2
run General-888-20140423-18:54:23-26720
attr D lce
attr F nrr
attr R lru
attr a 1.2
attr configname General
attr csize 0
attr ctlg 10^3
attr datetime 20140423-18:54:23
attr experiment General
attr inifile omnetpp.ini
attr iterationvars "$net=simple_scenario, $rep=3, $priceratiovalue=5, $a=1.2, $ctlg=10^3, $F=nrr, $ttl=1000, $D=lce, $R=lru, $csize=0"
attr iterationvars2 "$net=simple_scenario, $rep=3, $priceratiovalue=5, $a=1.2, $ctlg=10^3, $F=nrr, $ttl=1000, $D=lce, $R=lru, $csize=0, $repetition=0"
attr measurement "$net=simple_scenario, $rep=3, $priceratiovalue=5, $a=1.2, $ctlg=10^3, $F=nrr, $ttl=1000, $D=lce, $R=lru, $csize=0"
attr net simple_scenario
attr network networks.${net=simple_scenario}_network
attr priceratiovalue 5
attr processid 26720
attr rep 3
attr repetition 0
attr replication #0
attr resultdir results
attr runnumber 888
attr seedset 3
attr ttl 1000

scalar . 	a 	1.2
scalar . 	csize 	0
scalar . 	priceratiovalue 	5
scalar . 	rep 	3
scalar . 	ttl 	1000
scalar simple_scenario_network.content_distribution 	repo-0 	3
scalar simple_scenario_network.content_distribution 	repo-1 	4
scalar simple_scenario_network.content_distribution 	client-0 	0
scalar simple_scenario_network.content_distribution 	repo-0_card 	524
scalar simple_scenario_network.content_distribution 	repo-1_card 	476
scalar simple_scenario_network.statistics 	p_hit 	0
scalar simple_scenario_network.statistics 	interests 	108016.2
scalar simple_scenario_network.statistics 	data 	72010.8
scalar simple_scenario_network.statistics 	hdistance 	3
scalar simple_scenario_network.statistics 	avg_time 	0.001984971689
scalar simple_scenario_network.statistics 	downloads 	180027
scalar simple_scenario_network.statistics 	total_cost 	73010
scalar simple_scenario_network.node[0].core_layer 	interests[0] 	180027
scalar simple_scenario_network.node[0].core_layer 	data[0] 	180027
scalar simple_scenario_network.node[0].core_layer 	repo_int[0] 	180027
scalar simple_scenario_network.node[0].content_store 	p_hit[0] 	0
scalar simple_scenario_network.node[0].content_store 	hits[0] 	0
scalar simple_scenario_network.node[0].content_store 	misses[0] 	180027
scalar simple_scenario_network.node[1].core_layer 	interests[1] 	115518
scalar simple_scenario_network.node[1].core_layer 	data[1] 	115518
scalar simple_scenario_network.node[1].content_store 	p_hit[1] 	0
scalar simple_scenario_network.node[1].content_store 	hits[1] 	0
scalar simple_scenario_network.node[1].content_store 	misses[1] 	115518
scalar simple_scenario_network.node[2].core_layer 	interests[2] 	64509
scalar simple_scenario_network.node[2].core_layer 	data[2] 	64509
scalar simple_scenario_network.node[2].content_store 	p_hit[2] 	0
scalar simple_scenario_network.node[2].content_store 	hits[2] 	0
scalar simple_scenario_network.node[2].content_store 	misses[2] 	64509
scalar simple_scenario_network.node[3].core_layer 	interests[3] 	115518
scalar simple_scenario_network.node[3].core_layer 	repo_load[3] 	115518
scalar simple_scenario_network.node[3].core_layer 	data[3] 	0
scalar simple_scenario_network.node[3].content_store 	p_hit[3] 	0
scalar simple_scenario_network.node[3].content_store 	hits[3] 	0
scalar simple_scenario_network.node[3].content_store 	misses[3] 	115518
scalar simple_scenario_network.node[4].core_layer 	interests[4] 	64509
scalar simple_scenario_network.node[4].core_layer 	repo_load[4] 	64509
scalar simple_scenario_network.node[4].core_layer 	data[4] 	0
scalar simple_scenario_network.node[4].content_store 	p_hit[4] 	0
scalar simple_scenario_network.node[4].content_store 	hits[4] 	0
scalar simple_scenario_network.node[4].content_store 	misses[4] 	64509
scalar simple_scenario_network.client[0] 	hdistance[0] 	3
scalar simple_scenario_network.client[0] 	downloads[0] 	180027
scalar simple_scenario_network.client[0] 	avg_time[0] 	0.001984971689
