version 2
run General-5169-20140423-20:42:37-32373
attr D costprob0.1
attr F nrr
attr R lru
attr a 0.8
attr configname General
attr csize 2
attr ctlg 10^3
attr datetime 20140423-20:42:37
attr experiment General
attr inifile omnetpp.ini
attr iterationvars "$net=simple_scenario, $rep=15, $priceratiovalue=4, $a=0.8, $ctlg=10^3, $F=nrr, $ttl=1000, $D=costprob0.1, $R=lru, $csize=2"
attr iterationvars2 "$net=simple_scenario, $rep=15, $priceratiovalue=4, $a=0.8, $ctlg=10^3, $F=nrr, $ttl=1000, $D=costprob0.1, $R=lru, $csize=2, $repetition=0"
attr measurement "$net=simple_scenario, $rep=15, $priceratiovalue=4, $a=0.8, $ctlg=10^3, $F=nrr, $ttl=1000, $D=costprob0.1, $R=lru, $csize=2"
attr net simple_scenario
attr network networks.${net=simple_scenario}_network
attr priceratiovalue 4
attr processid 32373
attr rep 15
attr repetition 0
attr replication #0
attr resultdir results
attr runnumber 5169
attr seedset 15
attr ttl 1000

scalar . 	a 	0.8
scalar . 	csize 	2
scalar . 	priceratiovalue 	4
scalar . 	rep 	15
scalar . 	ttl 	1000
scalar simple_scenario_network.content_distribution 	repo-0 	3
scalar simple_scenario_network.content_distribution 	repo-1 	4
scalar simple_scenario_network.content_distribution 	client-0 	0
scalar simple_scenario_network.content_distribution 	repo-0_card 	472
scalar simple_scenario_network.content_distribution 	repo-1_card 	528
scalar simple_scenario_network.statistics 	p_hit 	0.023868564936313
scalar simple_scenario_network.statistics 	interests 	105092.2
scalar simple_scenario_network.statistics 	data 	69047.6
scalar simple_scenario_network.statistics 	hdistance 	2.8460249467329
scalar simple_scenario_network.statistics 	avg_time 	0.001998125545
scalar simple_scenario_network.statistics 	downloads 	180224
scalar simple_scenario_network.statistics 	total_cost 	87287
scalar simple_scenario_network.node[0].core_layer 	interests[0] 	180223
scalar simple_scenario_network.node[0].core_layer 	data[0] 	177557
scalar simple_scenario_network.node[0].core_layer 	repo_int[0] 	167681
scalar simple_scenario_network.node[0].content_store 	p_hit[0] 	0.014792784494765
scalar simple_scenario_network.node[0].content_store 	hits[0] 	2666
scalar simple_scenario_network.node[0].content_store 	misses[0] 	177557
scalar simple_scenario_network.node[1].core_layer 	interests[1] 	85630
scalar simple_scenario_network.node[1].core_layer 	data[1] 	78095
scalar simple_scenario_network.node[1].content_store 	p_hit[1] 	0.08799486161392
scalar simple_scenario_network.node[1].content_store 	hits[1] 	7535
scalar simple_scenario_network.node[1].content_store 	misses[1] 	78095
scalar simple_scenario_network.node[2].core_layer 	interests[2] 	91927
scalar simple_scenario_network.node[2].core_layer 	data[2] 	89586
scalar simple_scenario_network.node[2].content_store 	p_hit[2] 	0.025465858779249
scalar simple_scenario_network.node[2].content_store 	hits[2] 	2341
scalar simple_scenario_network.node[2].content_store 	misses[2] 	89586
scalar simple_scenario_network.node[3].core_layer 	interests[3] 	78095
scalar simple_scenario_network.node[3].core_layer 	repo_load[3] 	78095
scalar simple_scenario_network.node[3].core_layer 	data[3] 	0
scalar simple_scenario_network.node[3].content_store 	p_hit[3] 	0
scalar simple_scenario_network.node[3].content_store 	hits[3] 	0
scalar simple_scenario_network.node[3].content_store 	misses[3] 	78095
scalar simple_scenario_network.node[4].core_layer 	interests[4] 	89586
scalar simple_scenario_network.node[4].core_layer 	repo_load[4] 	89586
scalar simple_scenario_network.node[4].core_layer 	data[4] 	0
scalar simple_scenario_network.node[4].content_store 	p_hit[4] 	0
scalar simple_scenario_network.node[4].content_store 	hits[4] 	0
scalar simple_scenario_network.node[4].content_store 	misses[4] 	89586
scalar simple_scenario_network.client[0] 	hdistance[0] 	2.8460249467329
scalar simple_scenario_network.client[0] 	downloads[0] 	180224
scalar simple_scenario_network.client[0] 	avg_time[0] 	0.001998125545
