version 2
run General-26-20140419-16:24:20-7350
attr D prob_cache
attr F nrr
attr R lru
attr a 1.2
attr configname General
attr csize 10
attr ctlg 10^6
attr datetime 20140419-16:24:20
attr experiment General
attr inifile omnetpp.ini
attr iterationvars "$net=simple_scenario, $rep=1, $priceratiovalue=1, $a=1.2, $ctlg=10^6, $F=nrr, $ttl=1000, $D=prob_cache, $R=lru, $csize=10"
attr iterationvars2 "$net=simple_scenario, $rep=1, $priceratiovalue=1, $a=1.2, $ctlg=10^6, $F=nrr, $ttl=1000, $D=prob_cache, $R=lru, $csize=10, $repetition=0"
attr measurement "$net=simple_scenario, $rep=1, $priceratiovalue=1, $a=1.2, $ctlg=10^6, $F=nrr, $ttl=1000, $D=prob_cache, $R=lru, $csize=10"
attr net simple_scenario
attr network networks.${net=simple_scenario}_network
attr priceratiovalue 1
attr processid 7350
attr rep 1
attr repetition 0
attr replication #0
attr resultdir results
attr runnumber 26
attr seedset 1
attr ttl 1000

scalar . 	a 	1.2
scalar . 	csize 	10
scalar . 	priceratiovalue 	1
scalar . 	rep 	1
scalar . 	ttl 	1000
scalar simple_scenario_network.content_distribution 	repo-0 	3
scalar simple_scenario_network.content_distribution 	repo-1 	4
scalar simple_scenario_network.content_distribution 	client-0 	0
scalar simple_scenario_network.content_distribution 	repo-0_card 	500011
scalar simple_scenario_network.content_distribution 	repo-1_card 	499989
scalar simple_scenario_network.statistics 	p_hit 	0.21375519368242
scalar simple_scenario_network.statistics 	interests 	77498
scalar simple_scenario_network.statistics 	data 	41567.6
scalar simple_scenario_network.statistics 	hdistance 	1.6958453009151
scalar simple_scenario_network.statistics 	avg_time 	0.001990689549
scalar simple_scenario_network.statistics 	downloads 	179652
scalar simple_scenario_network.statistics 	total_cost 	48411
scalar simple_scenario_network.node[0].core_layer 	interests[0] 	179652
scalar simple_scenario_network.node[0].core_layer 	data[0] 	111014
scalar simple_scenario_network.node[0].core_layer 	repo_int[0] 	96824
scalar simple_scenario_network.node[0].content_store 	p_hit[0] 	0.38206087324383
scalar simple_scenario_network.node[0].content_store 	hits[0] 	68638
scalar simple_scenario_network.node[0].content_store 	misses[0] 	111014
scalar simple_scenario_network.node[1].core_layer 	interests[1] 	53502
scalar simple_scenario_network.node[1].core_layer 	data[1] 	47669
scalar simple_scenario_network.node[1].content_store 	p_hit[1] 	0.10902396172106
scalar simple_scenario_network.node[1].content_store 	hits[1] 	5833
scalar simple_scenario_network.node[1].content_store 	misses[1] 	47669
scalar simple_scenario_network.node[2].core_layer 	interests[2] 	57512
scalar simple_scenario_network.node[2].core_layer 	data[2] 	49155
scalar simple_scenario_network.node[2].content_store 	p_hit[2] 	0.14530880511893
scalar simple_scenario_network.node[2].content_store 	hits[2] 	8357
scalar simple_scenario_network.node[2].content_store 	misses[2] 	49155
scalar simple_scenario_network.node[3].core_layer 	interests[3] 	47669
scalar simple_scenario_network.node[3].core_layer 	repo_load[3] 	47669
scalar simple_scenario_network.node[3].core_layer 	data[3] 	0
scalar simple_scenario_network.node[3].content_store 	p_hit[3] 	0
scalar simple_scenario_network.node[3].content_store 	hits[3] 	0
scalar simple_scenario_network.node[3].content_store 	misses[3] 	47669
scalar simple_scenario_network.node[4].core_layer 	interests[4] 	49155
scalar simple_scenario_network.node[4].core_layer 	repo_load[4] 	49155
scalar simple_scenario_network.node[4].core_layer 	data[4] 	0
scalar simple_scenario_network.node[4].content_store 	p_hit[4] 	0
scalar simple_scenario_network.node[4].content_store 	hits[4] 	0
scalar simple_scenario_network.node[4].content_store 	misses[4] 	49155
scalar simple_scenario_network.client[0] 	hdistance[0] 	1.6958453009151
scalar simple_scenario_network.client[0] 	downloads[0] 	179652
scalar simple_scenario_network.client[0] 	avg_time[0] 	0.001990689549
