version 2
run General-3672-20140425-05:13:33-15678
attr D prob_cache
attr F nrr
attr R lru
attr a 0.8
attr configname General
attr csize 30
attr ctlg 10^3
attr datetime 20140425-05:13:33
attr experiment General
attr inifile omnetpp.ini
attr iterationvars "$net=one_cache_scenario, $rep=9, $priceratiovalue=8, $a=0.8, $ctlg=10^3, $F=nrr, $ttl=1000, $D=prob_cache, $R=lru, $csize=30"
attr iterationvars2 "$net=one_cache_scenario, $rep=9, $priceratiovalue=8, $a=0.8, $ctlg=10^3, $F=nrr, $ttl=1000, $D=prob_cache, $R=lru, $csize=30, $repetition=0"
attr measurement "$net=one_cache_scenario, $rep=9, $priceratiovalue=8, $a=0.8, $ctlg=10^3, $F=nrr, $ttl=1000, $D=prob_cache, $R=lru, $csize=30"
attr net one_cache_scenario
attr network networks.${net=one_cache_scenario}_network
attr priceratiovalue 8
attr processid 15678
attr rep 9
attr repetition 0
attr replication #0
attr resultdir results
attr runnumber 3672
attr seedset 9
attr ttl 1000

scalar . 	a 	0.8
scalar . 	csize 	30
scalar . 	priceratiovalue 	8
scalar . 	rep 	9
scalar . 	ttl 	1000
scalar one_cache_scenario_network.content_distribution 	repo-0 	3
scalar one_cache_scenario_network.content_distribution 	repo-1 	4
scalar one_cache_scenario_network.content_distribution 	client-0 	0
scalar one_cache_scenario_network.content_distribution 	repo-0_card 	499
scalar one_cache_scenario_network.content_distribution 	repo-1_card 	501
scalar one_cache_scenario_network.statistics 	p_hit 	0.10375841511428
scalar one_cache_scenario_network.statistics 	interests 	89303.6
scalar one_cache_scenario_network.statistics 	data 	53358.4
scalar one_cache_scenario_network.statistics 	hdistance 	1.4844374214082
scalar one_cache_scenario_network.statistics 	avg_time 	0
scalar one_cache_scenario_network.statistics 	downloads 	179726
scalar one_cache_scenario_network.statistics 	total_cost 	67204
scalar one_cache_scenario_network.statistics 	interests_sent 	179726
scalar one_cache_scenario_network.node[0].core_layer 	interests[0] 	179726
scalar one_cache_scenario_network.node[0].core_layer 	data[0] 	133396
scalar one_cache_scenario_network.node[0].core_layer 	repo_int[0] 	133396
scalar one_cache_scenario_network.node[0].content_store 	p_hit[0] 	0.25778128929593
scalar one_cache_scenario_network.node[0].content_store 	hits[0] 	46330
scalar one_cache_scenario_network.node[0].content_store 	misses[0] 	133396
scalar one_cache_scenario_network.node[0].content_store 	decision_yes[0] 	13070
scalar one_cache_scenario_network.node[0].content_store 	decision_no[0] 	120326
scalar one_cache_scenario_network.node[1].core_layer 	interests[1] 	66046
scalar one_cache_scenario_network.node[1].core_layer 	data[1] 	66046
scalar one_cache_scenario_network.node[1].content_store 	p_hit[1] 	0
scalar one_cache_scenario_network.node[1].content_store 	hits[1] 	0
scalar one_cache_scenario_network.node[1].content_store 	misses[1] 	66046
scalar one_cache_scenario_network.node[1].content_store 	decision_yes[1] 	0
scalar one_cache_scenario_network.node[1].content_store 	decision_no[1] 	66046
scalar one_cache_scenario_network.node[2].core_layer 	interests[2] 	67350
scalar one_cache_scenario_network.node[2].core_layer 	data[2] 	67350
scalar one_cache_scenario_network.node[2].content_store 	p_hit[2] 	0
scalar one_cache_scenario_network.node[2].content_store 	hits[2] 	0
scalar one_cache_scenario_network.node[2].content_store 	misses[2] 	67350
scalar one_cache_scenario_network.node[2].content_store 	decision_yes[2] 	0
scalar one_cache_scenario_network.node[2].content_store 	decision_no[2] 	67350
scalar one_cache_scenario_network.node[3].core_layer 	interests[3] 	66046
scalar one_cache_scenario_network.node[3].core_layer 	repo_load[3] 	66046
scalar one_cache_scenario_network.node[3].core_layer 	data[3] 	0
scalar one_cache_scenario_network.node[3].content_store 	p_hit[3] 	0
scalar one_cache_scenario_network.node[3].content_store 	hits[3] 	0
scalar one_cache_scenario_network.node[3].content_store 	misses[3] 	66046
scalar one_cache_scenario_network.node[3].content_store 	decision_yes[3] 	0
scalar one_cache_scenario_network.node[3].content_store 	decision_no[3] 	66046
scalar one_cache_scenario_network.node[4].core_layer 	interests[4] 	67350
scalar one_cache_scenario_network.node[4].core_layer 	repo_load[4] 	67350
scalar one_cache_scenario_network.node[4].core_layer 	data[4] 	0
scalar one_cache_scenario_network.node[4].content_store 	p_hit[4] 	0
scalar one_cache_scenario_network.node[4].content_store 	hits[4] 	0
scalar one_cache_scenario_network.node[4].content_store 	misses[4] 	67350
scalar one_cache_scenario_network.node[4].content_store 	decision_yes[4] 	0
scalar one_cache_scenario_network.node[4].content_store 	decision_no[4] 	67350
scalar one_cache_scenario_network.client[0] 	hdistance[0] 	1.4844374214082
scalar one_cache_scenario_network.client[0] 	downloads[0] 	179726
scalar one_cache_scenario_network.client[0] 	avg_time[0] 	0
scalar one_cache_scenario_network.client[0] 	interests_sent[0] 	179726
