version 2
run General-1783-20140502-04:31:54-10714
attr D fix0.05
attr F nrr
attr R lru
attr a 1
attr configname General
attr csize 1e3
attr ctlg 1e5
attr datetime 20140502-04:31:54
attr experiment General
attr inifile omnetpp.ini
attr iterationvars "$net=three_caches_scenario_3_links, $rep=4, $priceratiovalue=1, $weights=0.2_0.4_0.4, $a=1, $ctlg=1e5, $F=nrr, $ttl=1000, $D=fix0.05, $xi=1, $R=lru, $csize=1e3"
attr iterationvars2 "$net=three_caches_scenario_3_links, $rep=4, $priceratiovalue=1, $weights=0.2_0.4_0.4, $a=1, $ctlg=1e5, $F=nrr, $ttl=1000, $D=fix0.05, $xi=1, $R=lru, $csize=1e3, $repetition=0"
attr measurement "$net=three_caches_scenario_3_links, $rep=4, $priceratiovalue=1, $weights=0.2_0.4_0.4, $a=1, $ctlg=1e5, $F=nrr, $ttl=1000, $D=fix0.05, $xi=1, $R=lru, $csize=1e3"
attr net three_caches_scenario_3_links
attr network networks.${net=three_caches_scenario_3_links}_network
attr priceratiovalue 1
attr processid 10714
attr rep 4
attr repetition 0
attr replication #0
attr resultdir results
attr runnumber 1783
attr seedset 4
attr ttl 1000
attr weights 0.2_0.4_0.4
attr xi 1

scalar . 	a 	1
scalar . 	csize 	1e3
scalar . 	ctlg 	1e5
scalar . 	priceratiovalue 	1
scalar . 	rep 	4
scalar . 	ttl 	1000
scalar . 	xi 	1
scalar three_caches_scenario_3_links_network.content_distribution 	repo-0 	4
scalar three_caches_scenario_3_links_network.content_distribution 	repo-1 	5
scalar three_caches_scenario_3_links_network.content_distribution 	repo-2 	6
scalar three_caches_scenario_3_links_network.content_distribution 	client-0 	0
scalar three_caches_scenario_3_links_network.content_distribution 	repo-0_card 	20142
scalar three_caches_scenario_3_links_network.content_distribution 	repo-1_card 	39937
scalar three_caches_scenario_3_links_network.content_distribution 	repo-2_card 	39921
scalar three_caches_scenario_3_links_network.statistics 	p_hit 	0.27135533473887
scalar three_caches_scenario_3_links_network.statistics 	interests 	51022.714285714
scalar three_caches_scenario_3_links_network.statistics 	data 	25310.285714286
scalar three_caches_scenario_3_links_network.statistics 	hdistance 	1.3374688171923
scalar three_caches_scenario_3_links_network.statistics 	avg_time 	0
scalar three_caches_scenario_3_links_network.statistics 	downloads 	179987
scalar three_caches_scenario_3_links_network.statistics 	total_cost 	63555
scalar three_caches_scenario_3_links_network.statistics 	total_replicas 	100000
scalar three_caches_scenario_3_links_network.statistics 	interests_sent 	179987
scalar three_caches_scenario_3_links_network.node[0].core_layer 	interests[0] 	179987
scalar three_caches_scenario_3_links_network.node[0].core_layer 	data[0] 	94102
scalar three_caches_scenario_3_links_network.node[0].core_layer 	repo_int[0] 	83070
scalar three_caches_scenario_3_links_network.node[0].content_store 	p_hit[0] 	0.47717335140871
scalar three_caches_scenario_3_links_network.node[0].content_store 	hits[0] 	85885
scalar three_caches_scenario_3_links_network.node[0].content_store 	misses[0] 	94102
scalar three_caches_scenario_3_links_network.node[0].content_store 	decision_yes[0] 	4699
scalar three_caches_scenario_3_links_network.node[0].content_store 	decision_no[0] 	89403
scalar three_caches_scenario_3_links_network.node[1].core_layer 	interests[1] 	19515
scalar three_caches_scenario_3_links_network.node[1].core_layer 	data[1] 	19515
scalar three_caches_scenario_3_links_network.node[1].content_store 	p_hit[1] 	0
scalar three_caches_scenario_3_links_network.node[1].content_store 	hits[1] 	0
scalar three_caches_scenario_3_links_network.node[1].content_store 	misses[1] 	19515
scalar three_caches_scenario_3_links_network.node[1].content_store 	decision_yes[1] 	0
scalar three_caches_scenario_3_links_network.node[1].content_store 	decision_no[1] 	19515
scalar three_caches_scenario_3_links_network.node[2].core_layer 	interests[2] 	37769
scalar three_caches_scenario_3_links_network.node[2].core_layer 	data[2] 	32208
scalar three_caches_scenario_3_links_network.node[2].content_store 	p_hit[2] 	0.14723715216183
scalar three_caches_scenario_3_links_network.node[2].content_store 	hits[2] 	5561
scalar three_caches_scenario_3_links_network.node[2].content_store 	misses[2] 	32208
scalar three_caches_scenario_3_links_network.node[2].content_store 	decision_yes[2] 	1558
scalar three_caches_scenario_3_links_network.node[2].content_store 	decision_no[2] 	30650
scalar three_caches_scenario_3_links_network.node[3].core_layer 	interests[3] 	36818
scalar three_caches_scenario_3_links_network.node[3].core_layer 	data[3] 	31347
scalar three_caches_scenario_3_links_network.node[3].content_store 	p_hit[3] 	0.14859579553479
scalar three_caches_scenario_3_links_network.node[3].content_store 	hits[3] 	5471
scalar three_caches_scenario_3_links_network.node[3].content_store 	misses[3] 	31347
scalar three_caches_scenario_3_links_network.node[3].content_store 	decision_yes[3] 	1594
scalar three_caches_scenario_3_links_network.node[3].content_store 	decision_no[3] 	29753
scalar three_caches_scenario_3_links_network.node[4].core_layer 	interests[4] 	19515
scalar three_caches_scenario_3_links_network.node[4].core_layer 	repo_load[4] 	19515
scalar three_caches_scenario_3_links_network.node[4].core_layer 	data[4] 	0
scalar three_caches_scenario_3_links_network.node[4].content_store 	p_hit[4] 	0
scalar three_caches_scenario_3_links_network.node[4].content_store 	hits[4] 	0
scalar three_caches_scenario_3_links_network.node[4].content_store 	misses[4] 	19515
scalar three_caches_scenario_3_links_network.node[4].content_store 	decision_yes[4] 	0
scalar three_caches_scenario_3_links_network.node[4].content_store 	decision_no[4] 	19515
scalar three_caches_scenario_3_links_network.node[5].core_layer 	interests[5] 	32208
scalar three_caches_scenario_3_links_network.node[5].core_layer 	repo_load[5] 	32208
scalar three_caches_scenario_3_links_network.node[5].core_layer 	data[5] 	0
scalar three_caches_scenario_3_links_network.node[5].content_store 	p_hit[5] 	0
scalar three_caches_scenario_3_links_network.node[5].content_store 	hits[5] 	0
scalar three_caches_scenario_3_links_network.node[5].content_store 	misses[5] 	32208
scalar three_caches_scenario_3_links_network.node[5].content_store 	decision_yes[5] 	0
scalar three_caches_scenario_3_links_network.node[5].content_store 	decision_no[5] 	32208
scalar three_caches_scenario_3_links_network.node[6].core_layer 	interests[6] 	31347
scalar three_caches_scenario_3_links_network.node[6].core_layer 	repo_load[6] 	31347
scalar three_caches_scenario_3_links_network.node[6].core_layer 	data[6] 	0
scalar three_caches_scenario_3_links_network.node[6].content_store 	p_hit[6] 	0
scalar three_caches_scenario_3_links_network.node[6].content_store 	hits[6] 	0
scalar three_caches_scenario_3_links_network.node[6].content_store 	misses[6] 	31347
scalar three_caches_scenario_3_links_network.node[6].content_store 	decision_yes[6] 	0
scalar three_caches_scenario_3_links_network.node[6].content_store 	decision_no[6] 	31347
scalar three_caches_scenario_3_links_network.client[0] 	hdistance[0] 	1.3374688171923
scalar three_caches_scenario_3_links_network.client[0] 	downloads[0] 	179987
scalar three_caches_scenario_3_links_network.client[0] 	avg_time[0] 	0
scalar three_caches_scenario_3_links_network.client[0] 	interests_sent[0] 	179987
