version 2
run General-304-20140426-20:07:10-13881
attr D costprob0.02
attr F nrr
attr R lru
attr a 1
attr configname General
attr csize 1000
attr ctlg 10^5
attr datetime 20140426-20:07:10
attr experiment General
attr inifile omnetpp.ini
attr iterationvars "$net=one_cache_scenario, $rep=8, $priceratiovalue=5, $a=1, $ctlg=10^5, $F=nrr, $ttl=1000, $D=costprob0.02, $xi=4, $R=lru, $csize=1000"
attr iterationvars2 "$net=one_cache_scenario, $rep=8, $priceratiovalue=5, $a=1, $ctlg=10^5, $F=nrr, $ttl=1000, $D=costprob0.02, $xi=4, $R=lru, $csize=1000, $repetition=0"
attr measurement "$net=one_cache_scenario, $rep=8, $priceratiovalue=5, $a=1, $ctlg=10^5, $F=nrr, $ttl=1000, $D=costprob0.02, $xi=4, $R=lru, $csize=1000"
attr net one_cache_scenario
attr network networks.${net=one_cache_scenario}_network
attr priceratiovalue 5
attr processid 13881
attr rep 8
attr repetition 0
attr replication #0
attr resultdir results
attr runnumber 304
attr seedset 8
attr ttl 1000
attr xi 4

scalar . 	a 	1
scalar . 	csize 	1000
scalar . 	priceratiovalue 	5
scalar . 	rep 	8
scalar . 	ttl 	1000
scalar . 	xi 	4
scalar one_cache_scenario_network.content_distribution 	repo-0 	3
scalar one_cache_scenario_network.content_distribution 	repo-1 	4
scalar one_cache_scenario_network.content_distribution 	client-0 	0
scalar one_cache_scenario_network.content_distribution 	repo-0_card 	49902
scalar one_cache_scenario_network.content_distribution 	repo-1_card 	50098
scalar one_cache_scenario_network.statistics 	p_hit 	0.16509503680274
scalar one_cache_scenario_network.statistics 	interests 	81189.6
scalar one_cache_scenario_network.statistics 	data 	45190.4
scalar one_cache_scenario_network.statistics 	hdistance 	1.2553167848174
scalar one_cache_scenario_network.statistics 	avg_time 	0
scalar one_cache_scenario_network.statistics 	downloads 	179996
scalar one_cache_scenario_network.statistics 	total_cost 	43067
scalar one_cache_scenario_network.statistics 	interests_sent 	179996
scalar one_cache_scenario_network.node[0].core_layer 	interests[0] 	179996
scalar one_cache_scenario_network.node[0].core_layer 	data[0] 	112976
scalar one_cache_scenario_network.node[0].core_layer 	repo_int[0] 	112976
scalar one_cache_scenario_network.node[0].content_store 	p_hit[0] 	0.37234160759128
scalar one_cache_scenario_network.node[0].content_store 	hits[0] 	67020
scalar one_cache_scenario_network.node[0].content_store 	misses[0] 	112976
scalar one_cache_scenario_network.node[0].content_store 	decision_yes[0] 	698
scalar one_cache_scenario_network.node[0].content_store 	decision_no[0] 	112278
scalar one_cache_scenario_network.node[1].core_layer 	interests[1] 	76618
scalar one_cache_scenario_network.node[1].core_layer 	data[1] 	76618
scalar one_cache_scenario_network.node[1].content_store 	p_hit[1] 	0
scalar one_cache_scenario_network.node[1].content_store 	hits[1] 	0
scalar one_cache_scenario_network.node[1].content_store 	misses[1] 	76618
scalar one_cache_scenario_network.node[1].content_store 	decision_yes[1] 	0
scalar one_cache_scenario_network.node[1].content_store 	decision_no[1] 	76618
scalar one_cache_scenario_network.node[2].core_layer 	interests[2] 	36358
scalar one_cache_scenario_network.node[2].core_layer 	data[2] 	36358
scalar one_cache_scenario_network.node[2].content_store 	p_hit[2] 	0
scalar one_cache_scenario_network.node[2].content_store 	hits[2] 	0
scalar one_cache_scenario_network.node[2].content_store 	misses[2] 	36358
scalar one_cache_scenario_network.node[2].content_store 	decision_yes[2] 	0
scalar one_cache_scenario_network.node[2].content_store 	decision_no[2] 	36358
scalar one_cache_scenario_network.node[3].core_layer 	interests[3] 	76618
scalar one_cache_scenario_network.node[3].core_layer 	repo_load[3] 	76618
scalar one_cache_scenario_network.node[3].core_layer 	data[3] 	0
scalar one_cache_scenario_network.node[3].content_store 	p_hit[3] 	0
scalar one_cache_scenario_network.node[3].content_store 	hits[3] 	0
scalar one_cache_scenario_network.node[3].content_store 	misses[3] 	76618
scalar one_cache_scenario_network.node[3].content_store 	decision_yes[3] 	0
scalar one_cache_scenario_network.node[3].content_store 	decision_no[3] 	76618
scalar one_cache_scenario_network.node[4].core_layer 	interests[4] 	36358
scalar one_cache_scenario_network.node[4].core_layer 	repo_load[4] 	36358
scalar one_cache_scenario_network.node[4].core_layer 	data[4] 	0
scalar one_cache_scenario_network.node[4].content_store 	p_hit[4] 	0
scalar one_cache_scenario_network.node[4].content_store 	hits[4] 	0
scalar one_cache_scenario_network.node[4].content_store 	misses[4] 	36358
scalar one_cache_scenario_network.node[4].content_store 	decision_yes[4] 	0
scalar one_cache_scenario_network.node[4].content_store 	decision_no[4] 	36358
scalar one_cache_scenario_network.client[0] 	hdistance[0] 	1.2553167848174
scalar one_cache_scenario_network.client[0] 	downloads[0] 	179996
scalar one_cache_scenario_network.client[0] 	avg_time[0] 	0
scalar one_cache_scenario_network.client[0] 	interests_sent[0] 	179996
