version 2
run General-803-20140423-18:52:17-26628
attr D costprob0.01
attr F nrr
attr R lru
attr a 0
attr configname General
attr csize 2
attr ctlg 10^3
attr datetime 20140423-18:52:17
attr experiment General
attr inifile omnetpp.ini
attr iterationvars "$net=simple_scenario, $rep=3, $priceratiovalue=3, $a=0, $ctlg=10^3, $F=nrr, $ttl=1000, $D=costprob0.01, $R=lru, $csize=2"
attr iterationvars2 "$net=simple_scenario, $rep=3, $priceratiovalue=3, $a=0, $ctlg=10^3, $F=nrr, $ttl=1000, $D=costprob0.01, $R=lru, $csize=2, $repetition=0"
attr measurement "$net=simple_scenario, $rep=3, $priceratiovalue=3, $a=0, $ctlg=10^3, $F=nrr, $ttl=1000, $D=costprob0.01, $R=lru, $csize=2"
attr net simple_scenario
attr network networks.${net=simple_scenario}_network
attr priceratiovalue 3
attr processid 26628
attr rep 3
attr repetition 0
attr replication #0
attr resultdir results
attr runnumber 803
attr seedset 3
attr ttl 1000

scalar . 	a 	0
scalar . 	csize 	2
scalar . 	priceratiovalue 	3
scalar . 	rep 	3
scalar . 	ttl 	1000
scalar simple_scenario_network.content_distribution 	repo-0 	3
scalar simple_scenario_network.content_distribution 	repo-1 	4
scalar simple_scenario_network.content_distribution 	client-0 	0
scalar simple_scenario_network.content_distribution 	repo-0_card 	524
scalar simple_scenario_network.content_distribution 	repo-1_card 	476
scalar simple_scenario_network.statistics 	p_hit 	0.0020321994007427
scalar simple_scenario_network.statistics 	interests 	107666.6
scalar simple_scenario_network.statistics 	data 	71681.8
scalar simple_scenario_network.statistics 	hdistance 	2.9859218336631
scalar simple_scenario_network.statistics 	avg_time 	0.001999788127
scalar simple_scenario_network.statistics 	downloads 	179924
scalar simple_scenario_network.statistics 	total_cost 	87258
scalar simple_scenario_network.node[0].core_layer 	interests[0] 	179924
scalar simple_scenario_network.node[0].core_layer 	data[0] 	179579
scalar simple_scenario_network.node[0].core_layer 	repo_int[0] 	178830
scalar simple_scenario_network.node[0].content_store 	p_hit[0] 	0.0019174762677575
scalar simple_scenario_network.node[0].content_store 	hits[0] 	345
scalar simple_scenario_network.node[0].content_store 	misses[0] 	179579
scalar simple_scenario_network.node[1].core_layer 	interests[1] 	94085
scalar simple_scenario_network.node[1].core_layer 	data[1] 	93728
scalar simple_scenario_network.node[1].content_store 	p_hit[1] 	0.0037944411967901
scalar simple_scenario_network.node[1].content_store 	hits[1] 	357
scalar simple_scenario_network.node[1].content_store 	misses[1] 	93728
scalar simple_scenario_network.node[2].core_layer 	interests[2] 	85494
scalar simple_scenario_network.node[2].core_layer 	data[2] 	85102
scalar simple_scenario_network.node[2].content_store 	p_hit[2] 	0.0045851170842398
scalar simple_scenario_network.node[2].content_store 	hits[2] 	392
scalar simple_scenario_network.node[2].content_store 	misses[2] 	85102
scalar simple_scenario_network.node[3].core_layer 	interests[3] 	93728
scalar simple_scenario_network.node[3].core_layer 	repo_load[3] 	93728
scalar simple_scenario_network.node[3].core_layer 	data[3] 	0
scalar simple_scenario_network.node[3].content_store 	p_hit[3] 	0
scalar simple_scenario_network.node[3].content_store 	hits[3] 	0
scalar simple_scenario_network.node[3].content_store 	misses[3] 	93728
scalar simple_scenario_network.node[4].core_layer 	interests[4] 	85102
scalar simple_scenario_network.node[4].core_layer 	repo_load[4] 	85102
scalar simple_scenario_network.node[4].core_layer 	data[4] 	0
scalar simple_scenario_network.node[4].content_store 	p_hit[4] 	0
scalar simple_scenario_network.node[4].content_store 	hits[4] 	0
scalar simple_scenario_network.node[4].content_store 	misses[4] 	85102
scalar simple_scenario_network.client[0] 	hdistance[0] 	2.9859218336631
scalar simple_scenario_network.client[0] 	downloads[0] 	179924
scalar simple_scenario_network.client[0] 	avg_time[0] 	0.001999788127
