version 2
run General-3949-20140423-20:11:53-31027
attr D lce
attr F nrr
attr R lru
attr a 1.2
attr configname General
attr csize 2
attr ctlg 10^3
attr datetime 20140423-20:11:53
attr experiment General
attr inifile omnetpp.ini
attr iterationvars "$net=simple_scenario, $rep=11, $priceratiovalue=10, $a=1.2, $ctlg=10^3, $F=nrr, $ttl=1000, $D=lce, $R=lru, $csize=2"
attr iterationvars2 "$net=simple_scenario, $rep=11, $priceratiovalue=10, $a=1.2, $ctlg=10^3, $F=nrr, $ttl=1000, $D=lce, $R=lru, $csize=2, $repetition=0"
attr measurement "$net=simple_scenario, $rep=11, $priceratiovalue=10, $a=1.2, $ctlg=10^3, $F=nrr, $ttl=1000, $D=lce, $R=lru, $csize=2"
attr net simple_scenario
attr network networks.${net=simple_scenario}_network
attr priceratiovalue 10
attr processid 31027
attr rep 11
attr repetition 0
attr replication #0
attr resultdir results
attr runnumber 3949
attr seedset 11
attr ttl 1000

scalar . 	a 	1.2
scalar . 	csize 	2
scalar . 	priceratiovalue 	10
scalar . 	rep 	11
scalar . 	ttl 	1000
scalar simple_scenario_network.content_distribution 	repo-0 	3
scalar simple_scenario_network.content_distribution 	repo-1 	4
scalar simple_scenario_network.content_distribution 	client-0 	0
scalar simple_scenario_network.content_distribution 	repo-0_card 	503
scalar simple_scenario_network.content_distribution 	repo-1_card 	497
scalar simple_scenario_network.statistics 	p_hit 	0.07745571119472
scalar simple_scenario_network.statistics 	interests 	95577.2
scalar simple_scenario_network.statistics 	data 	59605.8
scalar simple_scenario_network.statistics 	hdistance 	2.4512337510703
scalar simple_scenario_network.statistics 	avg_time 	0.001985623524
scalar simple_scenario_network.statistics 	downloads 	179858
scalar simple_scenario_network.statistics 	total_cost 	89329
scalar simple_scenario_network.node[0].core_layer 	interests[0] 	179857
scalar simple_scenario_network.node[0].core_layer 	data[0] 	155187
scalar simple_scenario_network.node[0].core_layer 	repo_int[0] 	142842
scalar simple_scenario_network.node[0].content_store 	p_hit[0] 	0.13716452515054
scalar simple_scenario_network.node[0].content_store 	hits[0] 	24670
scalar simple_scenario_network.node[0].content_store 	misses[0] 	155187
scalar simple_scenario_network.node[1].core_layer 	interests[1] 	53235
scalar simple_scenario_network.node[1].core_layer 	data[1] 	49532
scalar simple_scenario_network.node[1].content_store 	p_hit[1] 	0.069559500328731
scalar simple_scenario_network.node[1].content_store 	hits[1] 	3703
scalar simple_scenario_network.node[1].content_store 	misses[1] 	49532
scalar simple_scenario_network.node[2].core_layer 	interests[2] 	101952
scalar simple_scenario_network.node[2].core_layer 	data[2] 	93310
scalar simple_scenario_network.node[2].content_store 	p_hit[2] 	0.084765379786566
scalar simple_scenario_network.node[2].content_store 	hits[2] 	8642
scalar simple_scenario_network.node[2].content_store 	misses[2] 	93310
scalar simple_scenario_network.node[3].core_layer 	interests[3] 	49532
scalar simple_scenario_network.node[3].core_layer 	repo_load[3] 	49532
scalar simple_scenario_network.node[3].core_layer 	data[3] 	0
scalar simple_scenario_network.node[3].content_store 	p_hit[3] 	0
scalar simple_scenario_network.node[3].content_store 	hits[3] 	0
scalar simple_scenario_network.node[3].content_store 	misses[3] 	49532
scalar simple_scenario_network.node[4].core_layer 	interests[4] 	93310
scalar simple_scenario_network.node[4].core_layer 	repo_load[4] 	93310
scalar simple_scenario_network.node[4].core_layer 	data[4] 	0
scalar simple_scenario_network.node[4].content_store 	p_hit[4] 	0
scalar simple_scenario_network.node[4].content_store 	hits[4] 	0
scalar simple_scenario_network.node[4].content_store 	misses[4] 	93310
scalar simple_scenario_network.client[0] 	hdistance[0] 	2.4512337510703
scalar simple_scenario_network.client[0] 	downloads[0] 	179858
scalar simple_scenario_network.client[0] 	avg_time[0] 	0.001985623524
