version 2
run General-861-20140425-16:11:58-13343
attr D fix0.1
attr F nrr
attr R lru
attr a 1.2
attr configname General
attr csize 9
attr ctlg 10^3
attr datetime 20140425-16:11:58
attr experiment General
attr inifile omnetpp.ini
attr iterationvars "$net=one_cache_scenario, $rep=8, $priceratiovalue=2, $a=1.2, $ctlg=10^3, $F=nrr, $ttl=1000, $D=fix0.1, $R=lru, $csize=9"
attr iterationvars2 "$net=one_cache_scenario, $rep=8, $priceratiovalue=2, $a=1.2, $ctlg=10^3, $F=nrr, $ttl=1000, $D=fix0.1, $R=lru, $csize=9, $repetition=0"
attr measurement "$net=one_cache_scenario, $rep=8, $priceratiovalue=2, $a=1.2, $ctlg=10^3, $F=nrr, $ttl=1000, $D=fix0.1, $R=lru, $csize=9"
attr net one_cache_scenario
attr network networks.${net=one_cache_scenario}_network
attr priceratiovalue 2
attr processid 13343
attr rep 8
attr repetition 0
attr replication #0
attr resultdir results
attr runnumber 861
attr seedset 8
attr ttl 1000

scalar . 	a 	1.2
scalar . 	csize 	9
scalar . 	priceratiovalue 	2
scalar . 	rep 	8
scalar . 	ttl 	1000
scalar one_cache_scenario_network.content_distribution 	repo-0 	3
scalar one_cache_scenario_network.content_distribution 	repo-1 	4
scalar one_cache_scenario_network.content_distribution 	client-0 	0
scalar one_cache_scenario_network.content_distribution 	repo-0_card 	495
scalar one_cache_scenario_network.content_distribution 	repo-1_card 	505
scalar one_cache_scenario_network.statistics 	p_hit 	0.22459221074292
scalar one_cache_scenario_network.statistics 	interests 	74646.4
scalar one_cache_scenario_network.statistics 	data 	38587.6
scalar one_cache_scenario_network.statistics 	hdistance 	1.0701298989428
scalar one_cache_scenario_network.statistics 	avg_time 	0
scalar one_cache_scenario_network.statistics 	downloads 	180294
scalar one_cache_scenario_network.statistics 	total_cost 	47954
scalar one_cache_scenario_network.statistics 	interests_sent 	180294
scalar one_cache_scenario_network.node[0].core_layer 	interests[0] 	180294
scalar one_cache_scenario_network.node[0].core_layer 	data[0] 	96469
scalar one_cache_scenario_network.node[0].core_layer 	repo_int[0] 	96469
scalar one_cache_scenario_network.node[0].content_store 	p_hit[0] 	0.46493505052858
scalar one_cache_scenario_network.node[0].content_store 	hits[0] 	83825
scalar one_cache_scenario_network.node[0].content_store 	misses[0] 	96469
scalar one_cache_scenario_network.node[0].content_store 	decision_yes[0] 	9663
scalar one_cache_scenario_network.node[0].content_store 	decision_no[0] 	86806
scalar one_cache_scenario_network.node[1].core_layer 	interests[1] 	49073
scalar one_cache_scenario_network.node[1].core_layer 	data[1] 	49073
scalar one_cache_scenario_network.node[1].content_store 	p_hit[1] 	0
scalar one_cache_scenario_network.node[1].content_store 	hits[1] 	0
scalar one_cache_scenario_network.node[1].content_store 	misses[1] 	49073
scalar one_cache_scenario_network.node[1].content_store 	decision_yes[1] 	0
scalar one_cache_scenario_network.node[1].content_store 	decision_no[1] 	49073
scalar one_cache_scenario_network.node[2].core_layer 	interests[2] 	47396
scalar one_cache_scenario_network.node[2].core_layer 	data[2] 	47396
scalar one_cache_scenario_network.node[2].content_store 	p_hit[2] 	0
scalar one_cache_scenario_network.node[2].content_store 	hits[2] 	0
scalar one_cache_scenario_network.node[2].content_store 	misses[2] 	47396
scalar one_cache_scenario_network.node[2].content_store 	decision_yes[2] 	0
scalar one_cache_scenario_network.node[2].content_store 	decision_no[2] 	47396
scalar one_cache_scenario_network.node[3].core_layer 	interests[3] 	49073
scalar one_cache_scenario_network.node[3].core_layer 	repo_load[3] 	49073
scalar one_cache_scenario_network.node[3].core_layer 	data[3] 	0
scalar one_cache_scenario_network.node[3].content_store 	p_hit[3] 	0
scalar one_cache_scenario_network.node[3].content_store 	hits[3] 	0
scalar one_cache_scenario_network.node[3].content_store 	misses[3] 	49073
scalar one_cache_scenario_network.node[3].content_store 	decision_yes[3] 	0
scalar one_cache_scenario_network.node[3].content_store 	decision_no[3] 	49073
scalar one_cache_scenario_network.node[4].core_layer 	interests[4] 	47396
scalar one_cache_scenario_network.node[4].core_layer 	repo_load[4] 	47396
scalar one_cache_scenario_network.node[4].core_layer 	data[4] 	0
scalar one_cache_scenario_network.node[4].content_store 	p_hit[4] 	0
scalar one_cache_scenario_network.node[4].content_store 	hits[4] 	0
scalar one_cache_scenario_network.node[4].content_store 	misses[4] 	47396
scalar one_cache_scenario_network.node[4].content_store 	decision_yes[4] 	0
scalar one_cache_scenario_network.node[4].content_store 	decision_no[4] 	47396
scalar one_cache_scenario_network.client[0] 	hdistance[0] 	1.0701298989428
scalar one_cache_scenario_network.client[0] 	downloads[0] 	180294
scalar one_cache_scenario_network.client[0] 	avg_time[0] 	0
scalar one_cache_scenario_network.client[0] 	interests_sent[0] 	180294
