version 2
run General-2709-20140502-06:18:14-11671
attr D fix0.001
attr F nrr
attr R lru
attr a 0.8
attr configname General
attr csize 1e3
attr ctlg 1e5
attr datetime 20140502-06:18:14
attr experiment General
attr inifile omnetpp.ini
attr iterationvars "$net=three_caches_scenario_3_links, $rep=5, $priceratiovalue=5, $weights=0_0.5_0.5, $a=0.8, $ctlg=1e5, $F=nrr, $ttl=1000, $D=fix0.001, $xi=1, $R=lru, $csize=1e3"
attr iterationvars2 "$net=three_caches_scenario_3_links, $rep=5, $priceratiovalue=5, $weights=0_0.5_0.5, $a=0.8, $ctlg=1e5, $F=nrr, $ttl=1000, $D=fix0.001, $xi=1, $R=lru, $csize=1e3, $repetition=0"
attr measurement "$net=three_caches_scenario_3_links, $rep=5, $priceratiovalue=5, $weights=0_0.5_0.5, $a=0.8, $ctlg=1e5, $F=nrr, $ttl=1000, $D=fix0.001, $xi=1, $R=lru, $csize=1e3"
attr net three_caches_scenario_3_links
attr network networks.${net=three_caches_scenario_3_links}_network
attr priceratiovalue 5
attr processid 11671
attr rep 5
attr repetition 0
attr replication #0
attr resultdir results
attr runnumber 2709
attr seedset 5
attr ttl 1000
attr weights 0_0.5_0.5
attr xi 1

scalar . 	a 	0.8
scalar . 	csize 	1e3
scalar . 	ctlg 	1e5
scalar . 	priceratiovalue 	5
scalar . 	rep 	5
scalar . 	ttl 	1000
scalar . 	xi 	1
scalar three_caches_scenario_3_links_network.content_distribution 	repo-0 	4
scalar three_caches_scenario_3_links_network.content_distribution 	repo-1 	5
scalar three_caches_scenario_3_links_network.content_distribution 	repo-2 	6
scalar three_caches_scenario_3_links_network.content_distribution 	client-0 	0
scalar three_caches_scenario_3_links_network.content_distribution 	repo-0_card 	0
scalar three_caches_scenario_3_links_network.content_distribution 	repo-1_card 	49909
scalar three_caches_scenario_3_links_network.content_distribution 	repo-2_card 	50091
scalar three_caches_scenario_3_links_network.statistics 	p_hit 	0.090245849914358
scalar three_caches_scenario_3_links_network.statistics 	interests 	66556.285714286
scalar three_caches_scenario_3_links_network.statistics 	data 	40770.857142857
scalar three_caches_scenario_3_links_network.statistics 	hdistance 	2.3482199248746
scalar three_caches_scenario_3_links_network.statistics 	avg_time 	0
scalar three_caches_scenario_3_links_network.statistics 	downloads 	180498
scalar three_caches_scenario_3_links_network.statistics 	total_cost 	415589
scalar three_caches_scenario_3_links_network.statistics 	total_replicas 	100000
scalar three_caches_scenario_3_links_network.statistics 	interests_sent 	180498
scalar three_caches_scenario_3_links_network.node[0].core_layer 	interests[0] 	180498
scalar three_caches_scenario_3_links_network.node[0].core_layer 	data[0] 	146943
scalar three_caches_scenario_3_links_network.node[0].core_layer 	repo_int[0] 	138453
scalar three_caches_scenario_3_links_network.node[0].content_store 	p_hit[0] 	0.185902336868
scalar three_caches_scenario_3_links_network.node[0].content_store 	hits[0] 	33555
scalar three_caches_scenario_3_links_network.node[0].content_store 	misses[0] 	146943
scalar three_caches_scenario_3_links_network.node[0].content_store 	decision_yes[0] 	134
scalar three_caches_scenario_3_links_network.node[0].content_store 	decision_no[0] 	146809
scalar three_caches_scenario_3_links_network.node[1].core_layer 	interests[1] 	0
scalar three_caches_scenario_3_links_network.node[1].core_layer 	data[1] 	0
scalar three_caches_scenario_3_links_network.node[1].content_store 	p_hit[1] 	-nan
scalar three_caches_scenario_3_links_network.node[1].content_store 	hits[1] 	0
scalar three_caches_scenario_3_links_network.node[1].content_store 	misses[1] 	0
scalar three_caches_scenario_3_links_network.node[1].content_store 	decision_yes[1] 	0
scalar three_caches_scenario_3_links_network.node[1].content_store 	decision_no[1] 	0
scalar three_caches_scenario_3_links_network.node[2].core_layer 	interests[2] 	73435
scalar three_caches_scenario_3_links_network.node[2].core_layer 	data[2] 	69169
scalar three_caches_scenario_3_links_network.node[2].content_store 	p_hit[2] 	0.058092190372438
scalar three_caches_scenario_3_links_network.node[2].content_store 	hits[2] 	4266
scalar three_caches_scenario_3_links_network.node[2].content_store 	misses[2] 	69169
scalar three_caches_scenario_3_links_network.node[2].content_store 	decision_yes[2] 	54
scalar three_caches_scenario_3_links_network.node[2].content_store 	decision_no[2] 	69115
scalar three_caches_scenario_3_links_network.node[3].core_layer 	interests[3] 	73508
scalar three_caches_scenario_3_links_network.node[3].core_layer 	data[3] 	69284
scalar three_caches_scenario_3_links_network.node[3].content_store 	p_hit[3] 	0.057463133264407
scalar three_caches_scenario_3_links_network.node[3].content_store 	hits[3] 	4224
scalar three_caches_scenario_3_links_network.node[3].content_store 	misses[3] 	69284
scalar three_caches_scenario_3_links_network.node[3].content_store 	decision_yes[3] 	68
scalar three_caches_scenario_3_links_network.node[3].content_store 	decision_no[3] 	69216
scalar three_caches_scenario_3_links_network.node[4].core_layer 	interests[4] 	0
scalar three_caches_scenario_3_links_network.node[4].core_layer 	data[4] 	0
scalar three_caches_scenario_3_links_network.node[4].content_store 	p_hit[4] 	-nan
scalar three_caches_scenario_3_links_network.node[4].content_store 	hits[4] 	0
scalar three_caches_scenario_3_links_network.node[4].content_store 	misses[4] 	0
scalar three_caches_scenario_3_links_network.node[4].content_store 	decision_yes[4] 	0
scalar three_caches_scenario_3_links_network.node[4].content_store 	decision_no[4] 	0
scalar three_caches_scenario_3_links_network.node[5].core_layer 	interests[5] 	69169
scalar three_caches_scenario_3_links_network.node[5].core_layer 	repo_load[5] 	69169
scalar three_caches_scenario_3_links_network.node[5].core_layer 	data[5] 	0
scalar three_caches_scenario_3_links_network.node[5].content_store 	p_hit[5] 	0
scalar three_caches_scenario_3_links_network.node[5].content_store 	hits[5] 	0
scalar three_caches_scenario_3_links_network.node[5].content_store 	misses[5] 	69169
scalar three_caches_scenario_3_links_network.node[5].content_store 	decision_yes[5] 	0
scalar three_caches_scenario_3_links_network.node[5].content_store 	decision_no[5] 	69169
scalar three_caches_scenario_3_links_network.node[6].core_layer 	interests[6] 	69284
scalar three_caches_scenario_3_links_network.node[6].core_layer 	repo_load[6] 	69284
scalar three_caches_scenario_3_links_network.node[6].core_layer 	data[6] 	0
scalar three_caches_scenario_3_links_network.node[6].content_store 	p_hit[6] 	0
scalar three_caches_scenario_3_links_network.node[6].content_store 	hits[6] 	0
scalar three_caches_scenario_3_links_network.node[6].content_store 	misses[6] 	69284
scalar three_caches_scenario_3_links_network.node[6].content_store 	decision_yes[6] 	0
scalar three_caches_scenario_3_links_network.node[6].content_store 	decision_no[6] 	69284
scalar three_caches_scenario_3_links_network.client[0] 	hdistance[0] 	2.3482199248746
scalar three_caches_scenario_3_links_network.client[0] 	downloads[0] 	180498
scalar three_caches_scenario_3_links_network.client[0] 	avg_time[0] 	0
scalar three_caches_scenario_3_links_network.client[0] 	interests_sent[0] 	180498
