version 2
run General-6-20140626-15:49:51-10441
attr D costprobcoinplain0.01
attr F nrr
attr R lru
attr a 1
attr configname General
attr csize 1e3
attr ctlg 1e5
attr datetime 20140626-15:49:51
attr experiment General
attr inifile omnetpp.ini
attr iterationvars "$net=abilene_cost, $rep=1, $priceratiovalue=10, $weights=0.333_0.333_0.334, $lambda=100, $a=1, $ctlg=1e5, $F=nrr, $ttl=1000, $D=costprobcoinplain0.01, $xi=1, $R=lru, $csize=1e3, $pricebits=0, $mytime=1800"
attr iterationvars2 "$net=abilene_cost, $rep=1, $priceratiovalue=10, $weights=0.333_0.333_0.334, $lambda=100, $a=1, $ctlg=1e5, $F=nrr, $ttl=1000, $D=costprobcoinplain0.01, $xi=1, $R=lru, $csize=1e3, $pricebits=0, $mytime=1800, $repetition=0"
attr lambda 100
attr measurement "$net=abilene_cost, $rep=1, $priceratiovalue=10, $weights=0.333_0.333_0.334, $lambda=100, $a=1, $ctlg=1e5, $F=nrr, $ttl=1000, $D=costprobcoinplain0.01, $xi=1, $R=lru, $csize=1e3, $pricebits=0, $mytime=1800"
attr mytime 1800
attr net abilene_cost
attr network networks.${net=abilene_cost}_network
attr pricebits 0
attr priceratiovalue 10
attr processid 10441
attr rep 1
attr repetition 0
attr replication #0
attr resultdir results
attr runnumber 6
attr seedset 1
attr ttl 1000
attr weights 0.333_0.333_0.334
attr xi 1

scalar . 	a 	1
scalar . 	csize 	1e3
scalar . 	ctlg 	1e5
scalar . 	lambda 	100
scalar . 	mytime 	1800
scalar . 	pricebits 	0
scalar . 	priceratiovalue 	10
scalar . 	rep 	1
scalar . 	ttl 	1000
scalar . 	xi 	1
scalar abilene_cost_network.content_distribution 	repo-0 	11
scalar abilene_cost_network.content_distribution 	repo-1 	12
scalar abilene_cost_network.content_distribution 	repo-2 	13
scalar abilene_cost_network.content_distribution 	client-0 	5
scalar abilene_cost_network.content_distribution 	client-1 	0
scalar abilene_cost_network.content_distribution 	client-2 	9
scalar abilene_cost_network.content_distribution 	repo-0_card 	33396
scalar abilene_cost_network.content_distribution 	repo-1_card 	33039
scalar abilene_cost_network.content_distribution 	repo-2_card 	33565
scalar abilene_cost_network.statistics 	repo_popularity[0] 	0.28686251265602
scalar abilene_cost_network.statistics 	repo_popularity[1] 	0.2886063426465
scalar abilene_cost_network.statistics 	repo_popularity[2] 	0.42453114469748
scalar abilene_cost_network.statistics 	stabilization_time 	514.1
scalar abilene_cost_network.node[1].face$o[4].channel 	price[1] 	0
scalar abilene_cost_network.node[1].face$o[4].channel 	represented_price[1] 	0
scalar abilene_cost_network.node[7].face$o[4].channel 	price[7] 	0
scalar abilene_cost_network.node[7].face$o[4].channel 	represented_price[7] 	0
scalar abilene_cost_network.node[10].face$o[4].channel 	price[10] 	0
scalar abilene_cost_network.node[10].face$o[4].channel 	represented_price[10] 	0
scalar abilene_cost_network.node[11].face$o[1].channel 	price[11] 	0
scalar abilene_cost_network.node[11].face$o[1].channel 	represented_price[11] 	0
scalar abilene_cost_network.node[12].face$o[1].channel 	price[12] 	1
scalar abilene_cost_network.node[12].face$o[1].channel 	represented_price[12] 	1
scalar abilene_cost_network.node[13].face$o[1].channel 	price[13] 	10
scalar abilene_cost_network.node[13].face$o[1].channel 	represented_price[13] 	10
scalar abilene_cost_network.statistics 	p_hit 	0.18824977803473
scalar abilene_cost_network.statistics 	interests 	110699.42857143
scalar abilene_cost_network.statistics 	data 	72175.857142857
scalar abilene_cost_network.statistics 	hdistance 	2.332527394898
scalar abilene_cost_network.statistics 	avg_time 	0.009262919676
scalar abilene_cost_network.statistics 	downloads 	539231
scalar abilene_cost_network.statistics 	total_cost 	922408
scalar abilene_cost_network.statistics 	total_replicas 	100000
scalar abilene_cost_network.statistics 	inner_hit 	0.54103899812882
scalar abilene_cost_network.statistics 	interests_sent 	539324
scalar abilene_cost_network.node[0].core_layer 	interests[0] 	183682
scalar abilene_cost_network.node[0].core_layer 	data[0] 	110777
scalar abilene_cost_network.node[0].core_layer 	repo_int[0] 	247486
scalar abilene_cost_network.node[0].content_store 	p_hit[0] 	0.39674001807472
scalar abilene_cost_network.node[0].content_store 	hits[0] 	72874
scalar abilene_cost_network.node[0].content_store 	misses[0] 	110808
scalar abilene_cost_network.node[0].content_store 	decision_yes[0] 	1074
scalar abilene_cost_network.node[0].content_store 	decision_no[0] 	109703
scalar abilene_cost_network.node[0].content_store 	decision_ratio[0] 	0.0096951533260514
scalar abilene_cost_network.node[0].content_store 	correction_factor[0] 	0.001
scalar abilene_cost_network.node[0].content_store 	xi[0] 	1
scalar abilene_cost_network.node[1].core_layer 	interests[1] 	161724
scalar abilene_cost_network.node[1].core_layer 	data[1] 	152016
scalar abilene_cost_network.node[1].content_store 	p_hit[1] 	0.060028196186095
scalar abilene_cost_network.node[1].content_store 	hits[1] 	9708
scalar abilene_cost_network.node[1].content_store 	misses[1] 	152016
scalar abilene_cost_network.node[1].content_store 	decision_yes[1] 	1499
scalar abilene_cost_network.node[1].content_store 	decision_no[1] 	150517
scalar abilene_cost_network.node[1].content_store 	decision_ratio[1] 	0.0098608041258815
scalar abilene_cost_network.node[1].content_store 	correction_factor[1] 	0.001
scalar abilene_cost_network.node[1].content_store 	xi[1] 	1
scalar abilene_cost_network.node[2].core_layer 	interests[2] 	105408
scalar abilene_cost_network.node[2].core_layer 	data[2] 	96530
scalar abilene_cost_network.node[2].content_store 	p_hit[2] 	0.084215619307832
scalar abilene_cost_network.node[2].content_store 	hits[2] 	8877
scalar abilene_cost_network.node[2].content_store 	misses[2] 	96531
scalar abilene_cost_network.node[2].content_store 	decision_yes[2] 	986
scalar abilene_cost_network.node[2].content_store 	decision_no[2] 	95544
scalar abilene_cost_network.node[2].content_store 	decision_ratio[2] 	0.010214441106392
scalar abilene_cost_network.node[2].content_store 	correction_factor[2] 	0.001
scalar abilene_cost_network.node[2].content_store 	xi[2] 	1
scalar abilene_cost_network.node[3].core_layer 	interests[3] 	98688
scalar abilene_cost_network.node[3].core_layer 	data[3] 	91851
scalar abilene_cost_network.node[3].content_store 	p_hit[3] 	0.069268806744488
scalar abilene_cost_network.node[3].content_store 	hits[3] 	6836
scalar abilene_cost_network.node[3].content_store 	misses[3] 	91852
scalar abilene_cost_network.node[3].content_store 	decision_yes[3] 	914
scalar abilene_cost_network.node[3].content_store 	decision_no[3] 	90937
scalar abilene_cost_network.node[3].content_store 	decision_ratio[3] 	0.0099508987381738
scalar abilene_cost_network.node[3].content_store 	correction_factor[3] 	0.001
scalar abilene_cost_network.node[3].content_store 	xi[3] 	1
scalar abilene_cost_network.node[4].core_layer 	interests[4] 	72303
scalar abilene_cost_network.node[4].core_layer 	data[4] 	65704
scalar abilene_cost_network.node[4].content_store 	p_hit[4] 	0.091254858028021
scalar abilene_cost_network.node[4].content_store 	hits[4] 	6598
scalar abilene_cost_network.node[4].content_store 	misses[4] 	65705
scalar abilene_cost_network.node[4].content_store 	decision_yes[4] 	636
scalar abilene_cost_network.node[4].content_store 	decision_no[4] 	65068
scalar abilene_cost_network.node[4].content_store 	decision_ratio[4] 	0.0096797759649336
scalar abilene_cost_network.node[4].content_store 	correction_factor[4] 	0.001
scalar abilene_cost_network.node[4].content_store 	xi[4] 	1
scalar abilene_cost_network.node[5].core_layer 	interests[5] 	180145
scalar abilene_cost_network.node[5].core_layer 	data[5] 	109808
scalar abilene_cost_network.node[5].content_store 	p_hit[5] 	0.39024674567709
scalar abilene_cost_network.node[5].content_store 	hits[5] 	70301
scalar abilene_cost_network.node[5].content_store 	misses[5] 	109844
scalar abilene_cost_network.node[5].content_store 	decision_yes[5] 	1027
scalar abilene_cost_network.node[5].content_store 	decision_no[5] 	108781
scalar abilene_cost_network.node[5].content_store 	decision_ratio[5] 	0.0093526883287192
scalar abilene_cost_network.node[5].content_store 	correction_factor[5] 	0.001
scalar abilene_cost_network.node[5].content_store 	xi[5] 	1
scalar abilene_cost_network.node[6].core_layer 	interests[6] 	40777
scalar abilene_cost_network.node[6].core_layer 	data[6] 	33220
scalar abilene_cost_network.node[6].content_store 	p_hit[6] 	0.18532506069598
scalar abilene_cost_network.node[6].content_store 	hits[6] 	7557
scalar abilene_cost_network.node[6].content_store 	misses[6] 	33220
scalar abilene_cost_network.node[6].content_store 	decision_yes[6] 	346
scalar abilene_cost_network.node[6].content_store 	decision_no[6] 	32874
scalar abilene_cost_network.node[6].content_store 	decision_ratio[6] 	0.010415412402167
scalar abilene_cost_network.node[6].content_store 	correction_factor[6] 	0.001
scalar abilene_cost_network.node[6].content_store 	xi[6] 	1
scalar abilene_cost_network.node[7].core_layer 	interests[7] 	90065
scalar abilene_cost_network.node[7].core_layer 	data[7] 	82520
scalar abilene_cost_network.node[7].content_store 	p_hit[7] 	0.083772830733359
scalar abilene_cost_network.node[7].content_store 	hits[7] 	7545
scalar abilene_cost_network.node[7].content_store 	misses[7] 	82520
scalar abilene_cost_network.node[7].content_store 	decision_yes[7] 	839
scalar abilene_cost_network.node[7].content_store 	decision_no[7] 	81681
scalar abilene_cost_network.node[7].content_store 	decision_ratio[7] 	0.010167232186137
scalar abilene_cost_network.node[7].content_store 	correction_factor[7] 	0.001
scalar abilene_cost_network.node[7].content_store 	xi[7] 	1
scalar abilene_cost_network.node[8].core_layer 	interests[8] 	46826
scalar abilene_cost_network.node[8].core_layer 	data[8] 	35384
scalar abilene_cost_network.node[8].content_store 	p_hit[8] 	0.24435142869346
scalar abilene_cost_network.node[8].content_store 	hits[8] 	11442
scalar abilene_cost_network.node[8].content_store 	misses[8] 	35384
scalar abilene_cost_network.node[8].content_store 	decision_yes[8] 	330
scalar abilene_cost_network.node[8].content_store 	decision_no[8] 	35054
scalar abilene_cost_network.node[8].content_store 	decision_ratio[8] 	0.0093262491521592
scalar abilene_cost_network.node[8].content_store 	correction_factor[8] 	0.001
scalar abilene_cost_network.node[8].content_store 	xi[8] 	1
scalar abilene_cost_network.node[9].core_layer 	interests[9] 	183297
scalar abilene_cost_network.node[9].core_layer 	data[9] 	109464
scalar abilene_cost_network.node[9].content_store 	p_hit[9] 	0.40266343693568
scalar abilene_cost_network.node[9].content_store 	hits[9] 	73807
scalar abilene_cost_network.node[9].content_store 	misses[9] 	109490
scalar abilene_cost_network.node[9].content_store 	decision_yes[9] 	1008
scalar abilene_cost_network.node[9].content_store 	decision_no[9] 	108456
scalar abilene_cost_network.node[9].content_store 	decision_ratio[9] 	0.0092085069063802
scalar abilene_cost_network.node[9].content_store 	correction_factor[9] 	0.001
scalar abilene_cost_network.node[9].content_store 	xi[9] 	1
scalar abilene_cost_network.node[10].core_layer 	interests[10] 	139391
scalar abilene_cost_network.node[10].core_layer 	data[10] 	123188
scalar abilene_cost_network.node[10].content_store 	p_hit[10] 	0.11624136422007
scalar abilene_cost_network.node[10].content_store 	hits[10] 	16203
scalar abilene_cost_network.node[10].content_store 	misses[10] 	123188
scalar abilene_cost_network.node[10].content_store 	decision_yes[10] 	1188
scalar abilene_cost_network.node[10].content_store 	decision_no[10] 	122000
scalar abilene_cost_network.node[10].content_store 	decision_ratio[10] 	0.0096437964736825
scalar abilene_cost_network.node[10].content_store 	correction_factor[10] 	0.001
scalar abilene_cost_network.node[10].content_store 	xi[10] 	1
scalar abilene_cost_network.node[11].core_layer 	interests[11] 	86352
scalar abilene_cost_network.node[11].core_layer 	repo_load[11] 	86352
scalar abilene_cost_network.node[11].core_layer 	data[11] 	0
scalar abilene_cost_network.node[11].content_store 	p_hit[11] 	0
scalar abilene_cost_network.node[11].content_store 	hits[11] 	0
scalar abilene_cost_network.node[11].content_store 	misses[11] 	86352
scalar abilene_cost_network.node[11].content_store 	decision_yes[11] 	0
scalar abilene_cost_network.node[11].content_store 	decision_no[11] 	86352
scalar abilene_cost_network.node[11].content_store 	decision_ratio[11] 	0
scalar abilene_cost_network.node[12].core_layer 	interests[12] 	76548
scalar abilene_cost_network.node[12].core_layer 	repo_load[12] 	76548
scalar abilene_cost_network.node[12].core_layer 	data[12] 	0
scalar abilene_cost_network.node[12].content_store 	p_hit[12] 	0
scalar abilene_cost_network.node[12].content_store 	hits[12] 	0
scalar abilene_cost_network.node[12].content_store 	misses[12] 	76548
scalar abilene_cost_network.node[12].content_store 	decision_yes[12] 	0
scalar abilene_cost_network.node[12].content_store 	decision_no[12] 	76548
scalar abilene_cost_network.node[12].content_store 	decision_ratio[12] 	0
scalar abilene_cost_network.node[13].core_layer 	interests[13] 	84586
scalar abilene_cost_network.node[13].core_layer 	repo_load[13] 	84586
scalar abilene_cost_network.node[13].core_layer 	data[13] 	0
scalar abilene_cost_network.node[13].content_store 	p_hit[13] 	0
scalar abilene_cost_network.node[13].content_store 	hits[13] 	0
scalar abilene_cost_network.node[13].content_store 	misses[13] 	84586
scalar abilene_cost_network.node[13].content_store 	decision_yes[13] 	0
scalar abilene_cost_network.node[13].content_store 	decision_no[13] 	84586
scalar abilene_cost_network.node[13].content_store 	decision_ratio[13] 	0
scalar abilene_cost_network.client[0] 	hdistance[0] 	2.1206431339455
scalar abilene_cost_network.client[0] 	downloads[0] 	180118
scalar abilene_cost_network.client[0] 	avg_time[0] 	0.009005616537
scalar abilene_cost_network.client[0] 	interests_sent[0] 	180149
scalar abilene_cost_network.client[5] 	hdistance[5] 	2.9444123174787
scalar abilene_cost_network.client[5] 	downloads[5] 	179842
scalar abilene_cost_network.client[5] 	avg_time[5] 	0.010818477067
scalar abilene_cost_network.client[5] 	interests_sent[5] 	179878
scalar abilene_cost_network.client[9] 	hdistance[9] 	1.9325267332697
scalar abilene_cost_network.client[9] 	downloads[9] 	179271
scalar abilene_cost_network.client[9] 	avg_time[9] 	0.007964665425
scalar abilene_cost_network.client[9] 	interests_sent[9] 	179297
