version 2
run General-1-20140723-21:39:57-7654
attr D costprobprodcorr0.01
attr F nrr
attr R lru
attr a 1
attr configname General
attr csize 1e1
attr ctlg 1e2
attr datetime 20140723-21:39:57
attr experiment General
attr inifile omnetpp.ini
attr iterationvars "$net=geant_cost, $rep=15, $priceratiovalue=100, $weights=0.333_0.333_0.334, $lambda=100, $a=1, $ctlg=1e2, $F=nrr, $ttl=1000, $D=costprobprodcorr0.01, $xi=1, $R=lru, $csize=1e1, $pricebits=0, $window=60, $variance=0.05, $mytime=1800"
attr iterationvars2 "$net=geant_cost, $rep=15, $priceratiovalue=100, $weights=0.333_0.333_0.334, $lambda=100, $a=1, $ctlg=1e2, $F=nrr, $ttl=1000, $D=costprobprodcorr0.01, $xi=1, $R=lru, $csize=1e1, $pricebits=0, $window=60, $variance=0.05, $mytime=1800, $repetition=0"
attr lambda 100
attr measurement "$net=geant_cost, $rep=15, $priceratiovalue=100, $weights=0.333_0.333_0.334, $lambda=100, $a=1, $ctlg=1e2, $F=nrr, $ttl=1000, $D=costprobprodcorr0.01, $xi=1, $R=lru, $csize=1e1, $pricebits=0, $window=60, $variance=0.05, $mytime=1800"
attr mytime 1800
attr net geant_cost
attr network networks.${net=geant_cost}_network
attr pricebits 0
attr priceratiovalue 100
attr processid 7654
attr rep 15
attr repetition 0
attr replication #0
attr resultdir results
attr runnumber 1
attr seedset 15
attr ttl 1000
attr variance 0.05
attr weights 0.333_0.333_0.334
attr window 60
attr xi 1

scalar . 	a 	1
scalar . 	csize 	1e1
scalar . 	ctlg 	1e2
scalar . 	lambda 	100
scalar . 	mytime 	1800
scalar . 	pricebits 	0
scalar . 	priceratiovalue 	100
scalar . 	rep 	15
scalar . 	ttl 	1000
scalar . 	variance 	0.05
scalar . 	window 	60
scalar . 	xi 	1
scalar geant_cost_network.content_distribution 	repo-0 	22
scalar geant_cost_network.content_distribution 	repo-1 	23
scalar geant_cost_network.content_distribution 	repo-2 	24
scalar geant_cost_network.content_distribution 	client-0 	20
scalar geant_cost_network.content_distribution 	client-1 	10
scalar geant_cost_network.content_distribution 	client-2 	12
scalar geant_cost_network.content_distribution 	client-3 	9
scalar geant_cost_network.content_distribution 	client-4 	5
scalar geant_cost_network.content_distribution 	repo-0_card 	41
scalar geant_cost_network.content_distribution 	repo-1_card 	28
scalar geant_cost_network.content_distribution 	repo-2_card 	31
scalar geant_cost_network.statistics 	popularity_indication[0] 	1.8673732016909
scalar geant_cost_network.statistics 	repo_popularity[0] 	0.35998405655669
scalar geant_cost_network.statistics 	popularity_indication[1] 	0.98258700270957
scalar geant_cost_network.statistics 	repo_popularity[1] 	0.18941883434708
scalar geant_cost_network.statistics 	popularity_indication[2] 	2.3374173132391
scalar geant_cost_network.statistics 	repo_popularity[2] 	0.45059710909622
