version 2
run General-6917-20140423-21:26:47-2016
attr D prob_cache
attr F nrr
attr R lru
attr a 0
attr configname General
attr csize 2
attr ctlg 10^3
attr datetime 20140423-21:26:47
attr experiment General
attr inifile omnetpp.ini
attr iterationvars "$net=simple_scenario, $rep=20, $priceratiovalue=3, $a=0, $ctlg=10^3, $F=nrr, $ttl=1000, $D=prob_cache, $R=lru, $csize=2"
attr iterationvars2 "$net=simple_scenario, $rep=20, $priceratiovalue=3, $a=0, $ctlg=10^3, $F=nrr, $ttl=1000, $D=prob_cache, $R=lru, $csize=2, $repetition=0"
attr measurement "$net=simple_scenario, $rep=20, $priceratiovalue=3, $a=0, $ctlg=10^3, $F=nrr, $ttl=1000, $D=prob_cache, $R=lru, $csize=2"
attr net simple_scenario
attr network networks.${net=simple_scenario}_network
attr priceratiovalue 3
attr processid 2016
attr rep 20
attr repetition 0
attr replication #0
attr resultdir results
attr runnumber 6917
attr seedset 20
attr ttl 1000

scalar . 	a 	0
scalar . 	csize 	2
scalar . 	priceratiovalue 	3
scalar . 	rep 	20
scalar . 	ttl 	1000
scalar simple_scenario_network.content_distribution 	repo-0 	3
scalar simple_scenario_network.content_distribution 	repo-1 	4
scalar simple_scenario_network.content_distribution 	client-0 	0
scalar simple_scenario_network.content_distribution 	repo-0_card 	484
scalar simple_scenario_network.content_distribution 	repo-1_card 	516
scalar simple_scenario_network.statistics 	p_hit 	0.0018570652808487
scalar simple_scenario_network.statistics 	interests 	107912.2
scalar simple_scenario_network.statistics 	data 	71852
scalar simple_scenario_network.statistics 	hdistance 	2.9869995895775
scalar simple_scenario_network.statistics 	avg_time 	0.001999738372
scalar simple_scenario_network.statistics 	downloads 	180302
scalar simple_scenario_network.statistics 	total_cost 	91172
scalar simple_scenario_network.node[0].core_layer 	interests[0] 	180301
scalar simple_scenario_network.node[0].core_layer 	data[0] 	179961
scalar simple_scenario_network.node[0].core_layer 	repo_int[0] 	179299
scalar simple_scenario_network.node[0].content_store 	p_hit[0] 	0.001885735520047
scalar simple_scenario_network.node[0].content_store 	hits[0] 	340
scalar simple_scenario_network.node[0].content_store 	misses[0] 	179961
scalar simple_scenario_network.node[1].core_layer 	interests[1] 	86923
scalar simple_scenario_network.node[1].core_layer 	data[1] 	86604
scalar simple_scenario_network.node[1].content_store 	p_hit[1] 	0.0036699147521369
scalar simple_scenario_network.node[1].content_store 	hits[1] 	319
scalar simple_scenario_network.node[1].content_store 	misses[1] 	86604
scalar simple_scenario_network.node[2].core_layer 	interests[2] 	93038
scalar simple_scenario_network.node[2].core_layer 	data[2] 	92695
scalar simple_scenario_network.node[2].content_store 	p_hit[2] 	0.0036866656634923
scalar simple_scenario_network.node[2].content_store 	hits[2] 	343
scalar simple_scenario_network.node[2].content_store 	misses[2] 	92695
scalar simple_scenario_network.node[3].core_layer 	interests[3] 	86604
scalar simple_scenario_network.node[3].core_layer 	repo_load[3] 	86604
scalar simple_scenario_network.node[3].core_layer 	data[3] 	0
scalar simple_scenario_network.node[3].content_store 	p_hit[3] 	0
scalar simple_scenario_network.node[3].content_store 	hits[3] 	0
scalar simple_scenario_network.node[3].content_store 	misses[3] 	86604
scalar simple_scenario_network.node[4].core_layer 	interests[4] 	92695
scalar simple_scenario_network.node[4].core_layer 	repo_load[4] 	92695
scalar simple_scenario_network.node[4].core_layer 	data[4] 	0
scalar simple_scenario_network.node[4].content_store 	p_hit[4] 	0
scalar simple_scenario_network.node[4].content_store 	hits[4] 	0
scalar simple_scenario_network.node[4].content_store 	misses[4] 	92695
scalar simple_scenario_network.client[0] 	hdistance[0] 	2.9869995895775
scalar simple_scenario_network.client[0] 	downloads[0] 	180302
scalar simple_scenario_network.client[0] 	avg_time[0] 	0.001999738372
