version 2
run General-179-20140502-11:01:12-13891
attr D fix0.005
attr F nrr
attr R lru
attr a 1.2
attr configname General
attr csize 1e3
attr ctlg 1e5
attr datetime 20140502-11:01:12
attr experiment General
attr inifile omnetpp.ini
attr iterationvars "$net=three_caches_scenario_3_links, $rep=2, $priceratiovalue=1, $weights=0.333_0.333_0.334, $a=1.2, $ctlg=1e5, $F=nrr, $ttl=1000, $D=fix0.005, $xi=1, $R=lru, $csize=1e3"
attr iterationvars2 "$net=three_caches_scenario_3_links, $rep=2, $priceratiovalue=1, $weights=0.333_0.333_0.334, $a=1.2, $ctlg=1e5, $F=nrr, $ttl=1000, $D=fix0.005, $xi=1, $R=lru, $csize=1e3, $repetition=0"
attr measurement "$net=three_caches_scenario_3_links, $rep=2, $priceratiovalue=1, $weights=0.333_0.333_0.334, $a=1.2, $ctlg=1e5, $F=nrr, $ttl=1000, $D=fix0.005, $xi=1, $R=lru, $csize=1e3"
attr net three_caches_scenario_3_links
attr network networks.${net=three_caches_scenario_3_links}_network
attr priceratiovalue 1
attr processid 13891
attr rep 2
attr repetition 0
attr replication #0
attr resultdir results
attr runnumber 179
attr seedset 2
attr ttl 1000
attr weights 0.333_0.333_0.334
attr xi 1

scalar . 	a 	1.2
scalar . 	csize 	1e3
scalar . 	ctlg 	1e5
scalar . 	priceratiovalue 	1
scalar . 	rep 	2
scalar . 	ttl 	1000
scalar . 	xi 	1
scalar three_caches_scenario_3_links_network.content_distribution 	repo-0 	4
scalar three_caches_scenario_3_links_network.content_distribution 	repo-1 	5
scalar three_caches_scenario_3_links_network.content_distribution 	repo-2 	6
scalar three_caches_scenario_3_links_network.content_distribution 	client-0 	0
scalar three_caches_scenario_3_links_network.content_distribution 	repo-0_card 	33264
scalar three_caches_scenario_3_links_network.content_distribution 	repo-1_card 	33272
scalar three_caches_scenario_3_links_network.content_distribution 	repo-2_card 	33464
scalar three_caches_scenario_3_links_network.statistics 	p_hit 	0.56934921728857
scalar three_caches_scenario_3_links_network.statistics 	interests 	36275
scalar three_caches_scenario_3_links_network.statistics 	data 	10639.428571429
scalar three_caches_scenario_3_links_network.statistics 	hdistance 	0.53769037442393
scalar three_caches_scenario_3_links_network.statistics 	avg_time 	0
scalar three_caches_scenario_3_links_network.statistics 	downloads 	179449
scalar three_caches_scenario_3_links_network.statistics 	total_cost 	22012
scalar three_caches_scenario_3_links_network.statistics 	total_replicas 	100000
scalar three_caches_scenario_3_links_network.statistics 	interests_sent 	179449
scalar three_caches_scenario_3_links_network.node[0].core_layer 	interests[0] 	179449
scalar three_caches_scenario_3_links_network.node[0].core_layer 	data[0] 	39599
scalar three_caches_scenario_3_links_network.node[0].core_layer 	repo_int[0] 	34877
scalar three_caches_scenario_3_links_network.node[0].content_store 	p_hit[0] 	0.77933006035141
scalar three_caches_scenario_3_links_network.node[0].content_store 	hits[0] 	139850
scalar three_caches_scenario_3_links_network.node[0].content_store 	misses[0] 	39599
scalar three_caches_scenario_3_links_network.node[0].content_store 	decision_yes[0] 	198
scalar three_caches_scenario_3_links_network.node[0].content_store 	decision_no[0] 	39401
scalar three_caches_scenario_3_links_network.node[1].core_layer 	interests[1] 	12865
scalar three_caches_scenario_3_links_network.node[1].core_layer 	data[1] 	12865
scalar three_caches_scenario_3_links_network.node[1].content_store 	p_hit[1] 	0
scalar three_caches_scenario_3_links_network.node[1].content_store 	hits[1] 	0
scalar three_caches_scenario_3_links_network.node[1].content_store 	misses[1] 	12865
scalar three_caches_scenario_3_links_network.node[1].content_store 	decision_yes[1] 	0
scalar three_caches_scenario_3_links_network.node[1].content_store 	decision_no[1] 	12865
scalar three_caches_scenario_3_links_network.node[2].core_layer 	interests[2] 	12981
scalar three_caches_scenario_3_links_network.node[2].core_layer 	data[2] 	11020
scalar three_caches_scenario_3_links_network.node[2].content_store 	p_hit[2] 	0.15106694399507
scalar three_caches_scenario_3_links_network.node[2].content_store 	hits[2] 	1961
scalar three_caches_scenario_3_links_network.node[2].content_store 	misses[2] 	11020
scalar three_caches_scenario_3_links_network.node[2].content_store 	decision_yes[2] 	54
scalar three_caches_scenario_3_links_network.node[2].content_store 	decision_no[2] 	10966
scalar three_caches_scenario_3_links_network.node[3].core_layer 	interests[3] 	13753
scalar three_caches_scenario_3_links_network.node[3].core_layer 	data[3] 	10992
scalar three_caches_scenario_3_links_network.node[3].content_store 	p_hit[3] 	0.20075619864757
scalar three_caches_scenario_3_links_network.node[3].content_store 	hits[3] 	2761
scalar three_caches_scenario_3_links_network.node[3].content_store 	misses[3] 	10992
scalar three_caches_scenario_3_links_network.node[3].content_store 	decision_yes[3] 	63
scalar three_caches_scenario_3_links_network.node[3].content_store 	decision_no[3] 	10929
scalar three_caches_scenario_3_links_network.node[4].core_layer 	interests[4] 	12865
scalar three_caches_scenario_3_links_network.node[4].core_layer 	repo_load[4] 	12865
scalar three_caches_scenario_3_links_network.node[4].core_layer 	data[4] 	0
scalar three_caches_scenario_3_links_network.node[4].content_store 	p_hit[4] 	0
scalar three_caches_scenario_3_links_network.node[4].content_store 	hits[4] 	0
scalar three_caches_scenario_3_links_network.node[4].content_store 	misses[4] 	12865
scalar three_caches_scenario_3_links_network.node[4].content_store 	decision_yes[4] 	0
scalar three_caches_scenario_3_links_network.node[4].content_store 	decision_no[4] 	12865
scalar three_caches_scenario_3_links_network.node[5].core_layer 	interests[5] 	11020
scalar three_caches_scenario_3_links_network.node[5].core_layer 	repo_load[5] 	11020
scalar three_caches_scenario_3_links_network.node[5].core_layer 	data[5] 	0
scalar three_caches_scenario_3_links_network.node[5].content_store 	p_hit[5] 	0
scalar three_caches_scenario_3_links_network.node[5].content_store 	hits[5] 	0
scalar three_caches_scenario_3_links_network.node[5].content_store 	misses[5] 	11020
scalar three_caches_scenario_3_links_network.node[5].content_store 	decision_yes[5] 	0
scalar three_caches_scenario_3_links_network.node[5].content_store 	decision_no[5] 	11020
scalar three_caches_scenario_3_links_network.node[6].core_layer 	interests[6] 	10992
scalar three_caches_scenario_3_links_network.node[6].core_layer 	repo_load[6] 	10992
scalar three_caches_scenario_3_links_network.node[6].core_layer 	data[6] 	0
scalar three_caches_scenario_3_links_network.node[6].content_store 	p_hit[6] 	0
scalar three_caches_scenario_3_links_network.node[6].content_store 	hits[6] 	0
scalar three_caches_scenario_3_links_network.node[6].content_store 	misses[6] 	10992
scalar three_caches_scenario_3_links_network.node[6].content_store 	decision_yes[6] 	0
scalar three_caches_scenario_3_links_network.node[6].content_store 	decision_no[6] 	10992
scalar three_caches_scenario_3_links_network.client[0] 	hdistance[0] 	0.53769037442393
scalar three_caches_scenario_3_links_network.client[0] 	downloads[0] 	179449
scalar three_caches_scenario_3_links_network.client[0] 	avg_time[0] 	0
scalar three_caches_scenario_3_links_network.client[0] 	interests_sent[0] 	179449
