version 2
run General-38-20140418-14:53:29-1227
attr D prob_cache
attr F nrr
attr R lru
attr a 1.2
attr configname General
attr csize 10
attr ctlg 10^4
attr datetime 20140418-14:53:29
attr experiment General
attr inifile omnetpp.ini
attr iterationvars "$net=simple_scenario, $rep=0, $priceratiovalue=10, $a=1.2, $ctlg=10^4, $F=nrr, $ttl=1000, $D=prob_cache, $R=lru, $csize=10"
attr iterationvars2 "$net=simple_scenario, $rep=0, $priceratiovalue=10, $a=1.2, $ctlg=10^4, $F=nrr, $ttl=1000, $D=prob_cache, $R=lru, $csize=10, $repetition=0"
attr measurement "$net=simple_scenario, $rep=0, $priceratiovalue=10, $a=1.2, $ctlg=10^4, $F=nrr, $ttl=1000, $D=prob_cache, $R=lru, $csize=10"
attr net simple_scenario
attr network networks.${net=simple_scenario}_network
attr priceratiovalue 10
attr processid 1227
attr rep 0
attr repetition 0
attr replication #0
attr resultdir results
attr runnumber 38
attr seedset 0
attr ttl 1000

scalar . 	a 	1.2
scalar . 	csize 	10
scalar . 	priceratiovalue 	10
scalar . 	rep 	0
scalar . 	ttl 	1000
scalar simple_scenario_network.content_distribution 	repo-0 	3
scalar simple_scenario_network.content_distribution 	repo-1 	4
scalar simple_scenario_network.content_distribution 	client-0 	0
scalar simple_scenario_network.content_distribution 	repo-0_card 	4915
scalar simple_scenario_network.content_distribution 	repo-1_card 	5085
scalar simple_scenario_network.statistics 	p_hit 	0.25227698539047
scalar simple_scenario_network.statistics 	interests 	73869.6
scalar simple_scenario_network.statistics 	data 	37930.2
scalar simple_scenario_network.statistics 	hdistance 	1.536864833581
scalar simple_scenario_network.statistics 	avg_time 	0.001987702437
scalar simple_scenario_network.statistics 	downloads 	179697
scalar simple_scenario_network.statistics 	total_cost 	46782
scalar simple_scenario_network.node[0].core_layer 	interests[0] 	179697
scalar simple_scenario_network.node[0].core_layer 	data[0] 	103132
scalar simple_scenario_network.node[0].core_layer 	repo_int[0] 	86519
scalar simple_scenario_network.node[0].content_store 	p_hit[0] 	0.42607834298848
scalar simple_scenario_network.node[0].content_store 	hits[0] 	76565
scalar simple_scenario_network.node[0].content_store 	misses[0] 	103132
scalar simple_scenario_network.node[1].core_layer 	interests[1] 	45104
scalar simple_scenario_network.node[1].core_layer 	data[1] 	38953
scalar simple_scenario_network.node[1].content_store 	p_hit[1] 	0.13637371408301
scalar simple_scenario_network.node[1].content_store 	hits[1] 	6151
scalar simple_scenario_network.node[1].content_store 	misses[1] 	38953
scalar simple_scenario_network.node[2].core_layer 	interests[2] 	58028
scalar simple_scenario_network.node[2].core_layer 	data[2] 	47566
scalar simple_scenario_network.node[2].content_store 	p_hit[2] 	0.18029227269594
scalar simple_scenario_network.node[2].content_store 	hits[2] 	10462
scalar simple_scenario_network.node[2].content_store 	misses[2] 	47566
scalar simple_scenario_network.node[3].core_layer 	interests[3] 	38953
scalar simple_scenario_network.node[3].core_layer 	repo_load[3] 	38953
scalar simple_scenario_network.node[3].core_layer 	data[3] 	0
scalar simple_scenario_network.node[3].content_store 	p_hit[3] 	0
scalar simple_scenario_network.node[3].content_store 	hits[3] 	0
scalar simple_scenario_network.node[3].content_store 	misses[3] 	38953
scalar simple_scenario_network.node[4].core_layer 	interests[4] 	47566
scalar simple_scenario_network.node[4].core_layer 	repo_load[4] 	47566
scalar simple_scenario_network.node[4].core_layer 	data[4] 	0
scalar simple_scenario_network.node[4].content_store 	p_hit[4] 	0
scalar simple_scenario_network.node[4].content_store 	hits[4] 	0
scalar simple_scenario_network.node[4].content_store 	misses[4] 	47566
scalar simple_scenario_network.client[0] 	hdistance[0] 	1.536864833581
scalar simple_scenario_network.client[0] 	downloads[0] 	179697
scalar simple_scenario_network.client[0] 	avg_time[0] 	0.001987702437
