version 2
run General-1096-20140502-03:11:55-10002
attr D costprob0.01
attr F nrr
attr R lru
attr a 1
attr configname General
attr csize 1e3
attr ctlg 1e5
attr datetime 20140502-03:11:55
attr experiment General
attr inifile omnetpp.ini
attr iterationvars "$net=three_caches_scenario_3_links, $rep=2, $priceratiovalue=10, $weights=0.7_0.15_0.15, $a=1, $ctlg=1e5, $F=nrr, $ttl=1000, $D=costprob0.01, $xi=1, $R=lru, $csize=1e3"
attr iterationvars2 "$net=three_caches_scenario_3_links, $rep=2, $priceratiovalue=10, $weights=0.7_0.15_0.15, $a=1, $ctlg=1e5, $F=nrr, $ttl=1000, $D=costprob0.01, $xi=1, $R=lru, $csize=1e3, $repetition=0"
attr measurement "$net=three_caches_scenario_3_links, $rep=2, $priceratiovalue=10, $weights=0.7_0.15_0.15, $a=1, $ctlg=1e5, $F=nrr, $ttl=1000, $D=costprob0.01, $xi=1, $R=lru, $csize=1e3"
attr net three_caches_scenario_3_links
attr network networks.${net=three_caches_scenario_3_links}_network
attr priceratiovalue 10
attr processid 10002
attr rep 2
attr repetition 0
attr replication #0
attr resultdir results
attr runnumber 1096
attr seedset 2
attr ttl 1000
attr weights 0.7_0.15_0.15
attr xi 1

scalar . 	a 	1
scalar . 	csize 	1e3
scalar . 	ctlg 	1e5
scalar . 	priceratiovalue 	10
scalar . 	rep 	2
scalar . 	ttl 	1000
scalar . 	xi 	1
scalar three_caches_scenario_3_links_network.content_distribution 	repo-0 	4
scalar three_caches_scenario_3_links_network.content_distribution 	repo-1 	5
scalar three_caches_scenario_3_links_network.content_distribution 	repo-2 	6
scalar three_caches_scenario_3_links_network.content_distribution 	client-0 	0
scalar three_caches_scenario_3_links_network.content_distribution 	repo-0_card 	69917
scalar three_caches_scenario_3_links_network.content_distribution 	repo-1_card 	15037
scalar three_caches_scenario_3_links_network.content_distribution 	repo-2_card 	15046
scalar three_caches_scenario_3_links_network.statistics 	p_hit 	0.07251989774268
scalar three_caches_scenario_3_links_network.statistics 	interests 	69013.571428571
scalar three_caches_scenario_3_links_network.statistics 	data 	43370.714285714
scalar three_caches_scenario_3_links_network.statistics 	hdistance 	1.7975097493036
scalar three_caches_scenario_3_links_network.statistics 	avg_time 	0
scalar three_caches_scenario_3_links_network.statistics 	downloads 	179500
scalar three_caches_scenario_3_links_network.statistics 	total_cost 	94703
scalar three_caches_scenario_3_links_network.statistics 	total_replicas 	100000
scalar three_caches_scenario_3_links_network.statistics 	interests_sent 	179500
scalar three_caches_scenario_3_links_network.node[0].core_layer 	interests[0] 	179500
scalar three_caches_scenario_3_links_network.node[0].core_layer 	data[0] 	159129
scalar three_caches_scenario_3_links_network.node[0].core_layer 	repo_int[0] 	144466
scalar three_caches_scenario_3_links_network.node[0].content_store 	p_hit[0] 	0.11348746518106
scalar three_caches_scenario_3_links_network.node[0].content_store 	hits[0] 	20371
scalar three_caches_scenario_3_links_network.node[0].content_store 	misses[0] 	159129
scalar three_caches_scenario_3_links_network.node[0].content_store 	decision_yes[0] 	520
scalar three_caches_scenario_3_links_network.node[0].content_store 	decision_no[0] 	158609
scalar three_caches_scenario_3_links_network.node[1].core_layer 	interests[1] 	125408
scalar three_caches_scenario_3_links_network.node[1].core_layer 	data[1] 	125408
scalar three_caches_scenario_3_links_network.node[1].content_store 	p_hit[1] 	0
scalar three_caches_scenario_3_links_network.node[1].content_store 	hits[1] 	0
scalar three_caches_scenario_3_links_network.node[1].content_store 	misses[1] 	125408
scalar three_caches_scenario_3_links_network.node[1].content_store 	decision_yes[1] 	0
scalar three_caches_scenario_3_links_network.node[1].content_store 	decision_no[1] 	125408
scalar three_caches_scenario_3_links_network.node[2].core_layer 	interests[2] 	17299
scalar three_caches_scenario_3_links_network.node[2].core_layer 	data[2] 	10653
scalar three_caches_scenario_3_links_network.node[2].content_store 	p_hit[2] 	0.3841840568819
scalar three_caches_scenario_3_links_network.node[2].content_store 	hits[2] 	6646
scalar three_caches_scenario_3_links_network.node[2].content_store 	misses[2] 	10653
scalar three_caches_scenario_3_links_network.node[2].content_store 	decision_yes[2] 	59
scalar three_caches_scenario_3_links_network.node[2].content_store 	decision_no[2] 	10594
scalar three_caches_scenario_3_links_network.node[3].core_layer 	interests[3] 	16422
scalar three_caches_scenario_3_links_network.node[3].core_layer 	data[3] 	8405
scalar three_caches_scenario_3_links_network.node[3].content_store 	p_hit[3] 	0.48818657897942
scalar three_caches_scenario_3_links_network.node[3].content_store 	hits[3] 	8017
scalar three_caches_scenario_3_links_network.node[3].content_store 	misses[3] 	8405
scalar three_caches_scenario_3_links_network.node[3].content_store 	decision_yes[3] 	513
scalar three_caches_scenario_3_links_network.node[3].content_store 	decision_no[3] 	7892
scalar three_caches_scenario_3_links_network.node[4].core_layer 	interests[4] 	125408
scalar three_caches_scenario_3_links_network.node[4].core_layer 	repo_load[4] 	125408
scalar three_caches_scenario_3_links_network.node[4].core_layer 	data[4] 	0
scalar three_caches_scenario_3_links_network.node[4].content_store 	p_hit[4] 	0
scalar three_caches_scenario_3_links_network.node[4].content_store 	hits[4] 	0
scalar three_caches_scenario_3_links_network.node[4].content_store 	misses[4] 	125408
scalar three_caches_scenario_3_links_network.node[4].content_store 	decision_yes[4] 	0
scalar three_caches_scenario_3_links_network.node[4].content_store 	decision_no[4] 	125408
scalar three_caches_scenario_3_links_network.node[5].core_layer 	interests[5] 	10653
scalar three_caches_scenario_3_links_network.node[5].core_layer 	repo_load[5] 	10653
scalar three_caches_scenario_3_links_network.node[5].core_layer 	data[5] 	0
scalar three_caches_scenario_3_links_network.node[5].content_store 	p_hit[5] 	0
scalar three_caches_scenario_3_links_network.node[5].content_store 	hits[5] 	0
scalar three_caches_scenario_3_links_network.node[5].content_store 	misses[5] 	10653
scalar three_caches_scenario_3_links_network.node[5].content_store 	decision_yes[5] 	0
scalar three_caches_scenario_3_links_network.node[5].content_store 	decision_no[5] 	10653
scalar three_caches_scenario_3_links_network.node[6].core_layer 	interests[6] 	8405
scalar three_caches_scenario_3_links_network.node[6].core_layer 	repo_load[6] 	8405
scalar three_caches_scenario_3_links_network.node[6].core_layer 	data[6] 	0
scalar three_caches_scenario_3_links_network.node[6].content_store 	p_hit[6] 	0
scalar three_caches_scenario_3_links_network.node[6].content_store 	hits[6] 	0
scalar three_caches_scenario_3_links_network.node[6].content_store 	misses[6] 	8405
scalar three_caches_scenario_3_links_network.node[6].content_store 	decision_yes[6] 	0
scalar three_caches_scenario_3_links_network.node[6].content_store 	decision_no[6] 	8405
scalar three_caches_scenario_3_links_network.client[0] 	hdistance[0] 	1.7975097493036
scalar three_caches_scenario_3_links_network.client[0] 	downloads[0] 	179500
scalar three_caches_scenario_3_links_network.client[0] 	avg_time[0] 	0
scalar three_caches_scenario_3_links_network.client[0] 	interests_sent[0] 	179500
