version 2
run General-5839-20140423-20:59:30-632
attr D fix0.01
attr F nrr
attr R lru
attr a 0
attr configname General
attr csize 2
attr ctlg 10^3
attr datetime 20140423-20:59:30
attr experiment General
attr inifile omnetpp.ini
attr iterationvars "$net=simple_scenario, $rep=17, $priceratiovalue=3, $a=0, $ctlg=10^3, $F=nrr, $ttl=1000, $D=fix0.01, $R=lru, $csize=2"
attr iterationvars2 "$net=simple_scenario, $rep=17, $priceratiovalue=3, $a=0, $ctlg=10^3, $F=nrr, $ttl=1000, $D=fix0.01, $R=lru, $csize=2, $repetition=0"
attr measurement "$net=simple_scenario, $rep=17, $priceratiovalue=3, $a=0, $ctlg=10^3, $F=nrr, $ttl=1000, $D=fix0.01, $R=lru, $csize=2"
attr net simple_scenario
attr network networks.${net=simple_scenario}_network
attr priceratiovalue 3
attr processid 632
attr rep 17
attr repetition 0
attr replication #0
attr resultdir results
attr runnumber 5839
attr seedset 17
attr ttl 1000

scalar . 	a 	0
scalar . 	csize 	2
scalar . 	priceratiovalue 	3
scalar . 	rep 	17
scalar . 	ttl 	1000
scalar simple_scenario_network.content_distribution 	repo-0 	3
scalar simple_scenario_network.content_distribution 	repo-1 	4
scalar simple_scenario_network.content_distribution 	client-0 	0
scalar simple_scenario_network.content_distribution 	repo-0_card 	481
scalar simple_scenario_network.content_distribution 	repo-1_card 	519
scalar simple_scenario_network.statistics 	p_hit 	0.0020156645934117
scalar simple_scenario_network.statistics 	interests 	107656.8
scalar simple_scenario_network.statistics 	data 	71676.2
scalar simple_scenario_network.statistics 	hdistance 	2.9860480369977
scalar simple_scenario_network.statistics 	avg_time 	0.001999676782
scalar simple_scenario_network.statistics 	downloads 	179903
scalar simple_scenario_network.statistics 	total_cost 	91285
scalar simple_scenario_network.node[0].core_layer 	interests[0] 	179903
scalar simple_scenario_network.node[0].core_layer 	data[0] 	179563
scalar simple_scenario_network.node[0].core_layer 	repo_int[0] 	178818
scalar simple_scenario_network.node[0].content_store 	p_hit[0] 	0.0018899073389549
scalar simple_scenario_network.node[0].content_store 	hits[0] 	340
scalar simple_scenario_network.node[0].content_store 	misses[0] 	179563
scalar simple_scenario_network.node[1].core_layer 	interests[1] 	86026
scalar simple_scenario_network.node[1].core_layer 	data[1] 	85656
scalar simple_scenario_network.node[1].content_store 	p_hit[1] 	0.0043010252714296
scalar simple_scenario_network.node[1].content_store 	hits[1] 	370
scalar simple_scenario_network.node[1].content_store 	misses[1] 	85656
scalar simple_scenario_network.node[2].core_layer 	interests[2] 	93537
scalar simple_scenario_network.node[2].core_layer 	data[2] 	93162
scalar simple_scenario_network.node[2].content_store 	p_hit[2] 	0.0040091086949549
scalar simple_scenario_network.node[2].content_store 	hits[2] 	375
scalar simple_scenario_network.node[2].content_store 	misses[2] 	93162
scalar simple_scenario_network.node[3].core_layer 	interests[3] 	85656
scalar simple_scenario_network.node[3].core_layer 	repo_load[3] 	85656
scalar simple_scenario_network.node[3].core_layer 	data[3] 	0
scalar simple_scenario_network.node[3].content_store 	p_hit[3] 	0
scalar simple_scenario_network.node[3].content_store 	hits[3] 	0
scalar simple_scenario_network.node[3].content_store 	misses[3] 	85656
scalar simple_scenario_network.node[4].core_layer 	interests[4] 	93162
scalar simple_scenario_network.node[4].core_layer 	repo_load[4] 	93162
scalar simple_scenario_network.node[4].core_layer 	data[4] 	0
scalar simple_scenario_network.node[4].content_store 	p_hit[4] 	0
scalar simple_scenario_network.node[4].content_store 	hits[4] 	0
scalar simple_scenario_network.node[4].content_store 	misses[4] 	93162
scalar simple_scenario_network.client[0] 	hdistance[0] 	2.9860480369977
scalar simple_scenario_network.client[0] 	downloads[0] 	179903
scalar simple_scenario_network.client[0] 	avg_time[0] 	0.001999676782
