version 2
run General-471-20140502-01:58:54-9357
attr D fix0.5
attr F nrr
attr R lru
attr a 0.8
attr configname General
attr csize 1e3
attr ctlg 1e5
attr datetime 20140502-01:58:54
attr experiment General
attr inifile omnetpp.ini
attr iterationvars "$net=three_caches_scenario_3_links, $rep=1, $priceratiovalue=10, $weights=0.2_0.4_0.4, $a=0.8, $ctlg=1e5, $F=nrr, $ttl=1000, $D=fix0.5, $xi=1, $R=lru, $csize=1e3"
attr iterationvars2 "$net=three_caches_scenario_3_links, $rep=1, $priceratiovalue=10, $weights=0.2_0.4_0.4, $a=0.8, $ctlg=1e5, $F=nrr, $ttl=1000, $D=fix0.5, $xi=1, $R=lru, $csize=1e3, $repetition=0"
attr measurement "$net=three_caches_scenario_3_links, $rep=1, $priceratiovalue=10, $weights=0.2_0.4_0.4, $a=0.8, $ctlg=1e5, $F=nrr, $ttl=1000, $D=fix0.5, $xi=1, $R=lru, $csize=1e3"
attr net three_caches_scenario_3_links
attr network networks.${net=three_caches_scenario_3_links}_network
attr priceratiovalue 10
attr processid 9357
attr rep 1
attr repetition 0
attr replication #0
attr resultdir results
attr runnumber 471
attr seedset 1
attr ttl 1000
attr weights 0.2_0.4_0.4
attr xi 1

scalar . 	a 	0.8
scalar . 	csize 	1e3
scalar . 	ctlg 	1e5
scalar . 	priceratiovalue 	10
scalar . 	rep 	1
scalar . 	ttl 	1000
scalar . 	xi 	1
scalar three_caches_scenario_3_links_network.content_distribution 	repo-0 	4
scalar three_caches_scenario_3_links_network.content_distribution 	repo-1 	5
scalar three_caches_scenario_3_links_network.content_distribution 	repo-2 	6
scalar three_caches_scenario_3_links_network.content_distribution 	client-0 	0
scalar three_caches_scenario_3_links_network.content_distribution 	repo-0_card 	19939
scalar three_caches_scenario_3_links_network.content_distribution 	repo-1_card 	40008
scalar three_caches_scenario_3_links_network.content_distribution 	repo-2_card 	40053
scalar three_caches_scenario_3_links_network.statistics 	p_hit 	0.072069364258371
scalar three_caches_scenario_3_links_network.statistics 	interests 	68442
scalar three_caches_scenario_3_links_network.statistics 	data 	42791.285714286
scalar three_caches_scenario_3_links_network.statistics 	hdistance 	2.3073487232324
scalar three_caches_scenario_3_links_network.statistics 	avg_time 	0
scalar three_caches_scenario_3_links_network.statistics 	downloads 	179555
scalar three_caches_scenario_3_links_network.statistics 	total_cost 	625480
scalar three_caches_scenario_3_links_network.statistics 	total_replicas 	100000
scalar three_caches_scenario_3_links_network.statistics 	interests_sent 	179555
scalar three_caches_scenario_3_links_network.node[0].core_layer 	interests[0] 	179555
scalar three_caches_scenario_3_links_network.node[0].core_layer 	data[0] 	154512
scalar three_caches_scenario_3_links_network.node[0].core_layer 	repo_int[0] 	145027
scalar three_caches_scenario_3_links_network.node[0].content_store 	p_hit[0] 	0.13947258500181
scalar three_caches_scenario_3_links_network.node[0].content_store 	hits[0] 	25043
scalar three_caches_scenario_3_links_network.node[0].content_store 	misses[0] 	154512
scalar three_caches_scenario_3_links_network.node[0].content_store 	decision_yes[0] 	77235
scalar three_caches_scenario_3_links_network.node[0].content_store 	decision_no[0] 	77277
scalar three_caches_scenario_3_links_network.node[1].core_layer 	interests[1] 	30270
scalar three_caches_scenario_3_links_network.node[1].core_layer 	data[1] 	30270
scalar three_caches_scenario_3_links_network.node[1].content_store 	p_hit[1] 	0
scalar three_caches_scenario_3_links_network.node[1].content_store 	hits[1] 	0
scalar three_caches_scenario_3_links_network.node[1].content_store 	misses[1] 	30270
scalar three_caches_scenario_3_links_network.node[1].content_store 	decision_yes[1] 	0
scalar three_caches_scenario_3_links_network.node[1].content_store 	decision_no[1] 	30270
scalar three_caches_scenario_3_links_network.node[2].core_layer 	interests[2] 	63250
scalar three_caches_scenario_3_links_network.node[2].core_layer 	data[2] 	58010
scalar three_caches_scenario_3_links_network.node[2].content_store 	p_hit[2] 	0.082845849802372
scalar three_caches_scenario_3_links_network.node[2].content_store 	hits[2] 	5240
scalar three_caches_scenario_3_links_network.node[2].content_store 	misses[2] 	58010
scalar three_caches_scenario_3_links_network.node[2].content_store 	decision_yes[2] 	28908
scalar three_caches_scenario_3_links_network.node[2].content_store 	decision_no[2] 	29102
scalar three_caches_scenario_3_links_network.node[3].core_layer 	interests[3] 	60992
scalar three_caches_scenario_3_links_network.node[3].core_layer 	data[3] 	56747
scalar three_caches_scenario_3_links_network.node[3].content_store 	p_hit[3] 	0.069599291710388
scalar three_caches_scenario_3_links_network.node[3].content_store 	hits[3] 	4245
scalar three_caches_scenario_3_links_network.node[3].content_store 	misses[3] 	56747
scalar three_caches_scenario_3_links_network.node[3].content_store 	decision_yes[3] 	28332
scalar three_caches_scenario_3_links_network.node[3].content_store 	decision_no[3] 	28415
scalar three_caches_scenario_3_links_network.node[4].core_layer 	interests[4] 	30270
scalar three_caches_scenario_3_links_network.node[4].core_layer 	repo_load[4] 	30270
scalar three_caches_scenario_3_links_network.node[4].core_layer 	data[4] 	0
scalar three_caches_scenario_3_links_network.node[4].content_store 	p_hit[4] 	0
scalar three_caches_scenario_3_links_network.node[4].content_store 	hits[4] 	0
scalar three_caches_scenario_3_links_network.node[4].content_store 	misses[4] 	30270
scalar three_caches_scenario_3_links_network.node[4].content_store 	decision_yes[4] 	0
scalar three_caches_scenario_3_links_network.node[4].content_store 	decision_no[4] 	30270
scalar three_caches_scenario_3_links_network.node[5].core_layer 	interests[5] 	58010
scalar three_caches_scenario_3_links_network.node[5].core_layer 	repo_load[5] 	58010
scalar three_caches_scenario_3_links_network.node[5].core_layer 	data[5] 	0
scalar three_caches_scenario_3_links_network.node[5].content_store 	p_hit[5] 	0
scalar three_caches_scenario_3_links_network.node[5].content_store 	hits[5] 	0
scalar three_caches_scenario_3_links_network.node[5].content_store 	misses[5] 	58010
scalar three_caches_scenario_3_links_network.node[5].content_store 	decision_yes[5] 	0
scalar three_caches_scenario_3_links_network.node[5].content_store 	decision_no[5] 	58010
scalar three_caches_scenario_3_links_network.node[6].core_layer 	interests[6] 	56747
scalar three_caches_scenario_3_links_network.node[6].core_layer 	repo_load[6] 	56747
scalar three_caches_scenario_3_links_network.node[6].core_layer 	data[6] 	0
scalar three_caches_scenario_3_links_network.node[6].content_store 	p_hit[6] 	0
scalar three_caches_scenario_3_links_network.node[6].content_store 	hits[6] 	0
scalar three_caches_scenario_3_links_network.node[6].content_store 	misses[6] 	56747
scalar three_caches_scenario_3_links_network.node[6].content_store 	decision_yes[6] 	0
scalar three_caches_scenario_3_links_network.node[6].content_store 	decision_no[6] 	56747
scalar three_caches_scenario_3_links_network.client[0] 	hdistance[0] 	2.3073487232324
scalar three_caches_scenario_3_links_network.client[0] 	downloads[0] 	179555
scalar three_caches_scenario_3_links_network.client[0] 	avg_time[0] 	0
scalar three_caches_scenario_3_links_network.client[0] 	interests_sent[0] 	179555
