version 2
run General-216-20140502-11:17:17-14463
attr D costprob0.1
attr F nrr
attr R lru
attr a 0.8
attr configname General
attr csize 1e3
attr ctlg 1e5
attr datetime 20140502-11:17:17
attr experiment General
attr inifile omnetpp.ini
attr iterationvars "$net=three_caches_scenario_3_links, $rep=2, $priceratiovalue=5, $weights=0.333_0.333_0.334, $a=0.8, $ctlg=1e5, $F=nrr, $ttl=1000, $D=costprob0.1, $xi=1, $R=lru, $csize=1e3"
attr iterationvars2 "$net=three_caches_scenario_3_links, $rep=2, $priceratiovalue=5, $weights=0.333_0.333_0.334, $a=0.8, $ctlg=1e5, $F=nrr, $ttl=1000, $D=costprob0.1, $xi=1, $R=lru, $csize=1e3, $repetition=0"
attr measurement "$net=three_caches_scenario_3_links, $rep=2, $priceratiovalue=5, $weights=0.333_0.333_0.334, $a=0.8, $ctlg=1e5, $F=nrr, $ttl=1000, $D=costprob0.1, $xi=1, $R=lru, $csize=1e3"
attr net three_caches_scenario_3_links
attr network networks.${net=three_caches_scenario_3_links}_network
attr priceratiovalue 5
attr processid 14463
attr rep 2
attr repetition 0
attr replication #0
attr resultdir results
attr runnumber 216
attr seedset 2
attr ttl 1000
attr weights 0.333_0.333_0.334
attr xi 1

scalar . 	a 	0.8
scalar . 	csize 	1e3
scalar . 	ctlg 	1e5
scalar . 	priceratiovalue 	5
scalar . 	rep 	2
scalar . 	ttl 	1000
scalar . 	xi 	1
scalar three_caches_scenario_3_links_network.content_distribution 	repo-0 	4
scalar three_caches_scenario_3_links_network.content_distribution 	repo-1 	5
scalar three_caches_scenario_3_links_network.content_distribution 	repo-2 	6
scalar three_caches_scenario_3_links_network.content_distribution 	client-0 	0
scalar three_caches_scenario_3_links_network.content_distribution 	repo-0_card 	33264
scalar three_caches_scenario_3_links_network.content_distribution 	repo-1_card 	33272
scalar three_caches_scenario_3_links_network.content_distribution 	repo-2_card 	33464
scalar three_caches_scenario_3_links_network.statistics 	p_hit 	0.057537022258584
scalar three_caches_scenario_3_links_network.statistics 	interests 	71067.285714286
scalar three_caches_scenario_3_links_network.statistics 	data 	45362.285714286
scalar three_caches_scenario_3_links_network.statistics 	hdistance 	2.2579542612611
scalar three_caches_scenario_3_links_network.statistics 	avg_time 	0
scalar three_caches_scenario_3_links_network.statistics 	downloads 	179935
scalar three_caches_scenario_3_links_network.statistics 	total_cost 	268661
scalar three_caches_scenario_3_links_network.statistics 	total_replicas 	100000
scalar three_caches_scenario_3_links_network.statistics 	interests_sent 	179935
scalar three_caches_scenario_3_links_network.node[0].core_layer 	interests[0] 	179935
scalar three_caches_scenario_3_links_network.node[0].core_layer 	data[0] 	166224
scalar three_caches_scenario_3_links_network.node[0].core_layer 	repo_int[0] 	151312
scalar three_caches_scenario_3_links_network.node[0].content_store 	p_hit[0] 	0.076199738794565
scalar three_caches_scenario_3_links_network.node[0].content_store 	hits[0] 	13711
scalar three_caches_scenario_3_links_network.node[0].content_store 	misses[0] 	166224
scalar three_caches_scenario_3_links_network.node[0].content_store 	decision_yes[0] 	13471
scalar three_caches_scenario_3_links_network.node[0].content_store 	decision_no[0] 	152753
scalar three_caches_scenario_3_links_network.node[1].core_layer 	interests[1] 	62563
scalar three_caches_scenario_3_links_network.node[1].core_layer 	data[1] 	62563
scalar three_caches_scenario_3_links_network.node[1].content_store 	p_hit[1] 	0
scalar three_caches_scenario_3_links_network.node[1].content_store 	hits[1] 	0
scalar three_caches_scenario_3_links_network.node[1].content_store 	misses[1] 	62563
scalar three_caches_scenario_3_links_network.node[1].content_store 	decision_yes[1] 	0
scalar three_caches_scenario_3_links_network.node[1].content_store 	decision_no[1] 	62563
scalar three_caches_scenario_3_links_network.node[2].core_layer 	interests[2] 	52886
scalar three_caches_scenario_3_links_network.node[2].core_layer 	data[2] 	43771
scalar three_caches_scenario_3_links_network.node[2].content_store 	p_hit[2] 	0.17235185115153
scalar three_caches_scenario_3_links_network.node[2].content_store 	hits[2] 	9115
scalar three_caches_scenario_3_links_network.node[2].content_store 	misses[2] 	43771
scalar three_caches_scenario_3_links_network.node[2].content_store 	decision_yes[2] 	2189
scalar three_caches_scenario_3_links_network.node[2].content_store 	decision_no[2] 	41582
scalar three_caches_scenario_3_links_network.node[3].core_layer 	interests[3] 	50775
scalar three_caches_scenario_3_links_network.node[3].core_layer 	data[3] 	44978
scalar three_caches_scenario_3_links_network.node[3].content_store 	p_hit[3] 	0.11417035942885
scalar three_caches_scenario_3_links_network.node[3].content_store 	hits[3] 	5797
scalar three_caches_scenario_3_links_network.node[3].content_store 	misses[3] 	44978
scalar three_caches_scenario_3_links_network.node[3].content_store 	decision_yes[3] 	11475
scalar three_caches_scenario_3_links_network.node[3].content_store 	decision_no[3] 	33503
scalar three_caches_scenario_3_links_network.node[4].core_layer 	interests[4] 	62563
scalar three_caches_scenario_3_links_network.node[4].core_layer 	repo_load[4] 	62563
scalar three_caches_scenario_3_links_network.node[4].core_layer 	data[4] 	0
scalar three_caches_scenario_3_links_network.node[4].content_store 	p_hit[4] 	0
scalar three_caches_scenario_3_links_network.node[4].content_store 	hits[4] 	0
scalar three_caches_scenario_3_links_network.node[4].content_store 	misses[4] 	62563
scalar three_caches_scenario_3_links_network.node[4].content_store 	decision_yes[4] 	0
scalar three_caches_scenario_3_links_network.node[4].content_store 	decision_no[4] 	62563
scalar three_caches_scenario_3_links_network.node[5].core_layer 	interests[5] 	43771
scalar three_caches_scenario_3_links_network.node[5].core_layer 	repo_load[5] 	43771
scalar three_caches_scenario_3_links_network.node[5].core_layer 	data[5] 	0
scalar three_caches_scenario_3_links_network.node[5].content_store 	p_hit[5] 	0
scalar three_caches_scenario_3_links_network.node[5].content_store 	hits[5] 	0
scalar three_caches_scenario_3_links_network.node[5].content_store 	misses[5] 	43771
scalar three_caches_scenario_3_links_network.node[5].content_store 	decision_yes[5] 	0
scalar three_caches_scenario_3_links_network.node[5].content_store 	decision_no[5] 	43771
scalar three_caches_scenario_3_links_network.node[6].core_layer 	interests[6] 	44978
scalar three_caches_scenario_3_links_network.node[6].core_layer 	repo_load[6] 	44978
scalar three_caches_scenario_3_links_network.node[6].core_layer 	data[6] 	0
scalar three_caches_scenario_3_links_network.node[6].content_store 	p_hit[6] 	0
scalar three_caches_scenario_3_links_network.node[6].content_store 	hits[6] 	0
scalar three_caches_scenario_3_links_network.node[6].content_store 	misses[6] 	44978
scalar three_caches_scenario_3_links_network.node[6].content_store 	decision_yes[6] 	0
scalar three_caches_scenario_3_links_network.node[6].content_store 	decision_no[6] 	44978
scalar three_caches_scenario_3_links_network.client[0] 	hdistance[0] 	2.2579542612611
scalar three_caches_scenario_3_links_network.client[0] 	downloads[0] 	179935
scalar three_caches_scenario_3_links_network.client[0] 	avg_time[0] 	0
scalar three_caches_scenario_3_links_network.client[0] 	interests_sent[0] 	179935
