version 2
run General-1536-20140422-20:11:22-28395
attr D lce
attr F nrr
attr R lru
attr a 0
attr configname General
attr csize 10
attr ctlg 10^3
attr datetime 20140422-20:11:22
attr experiment General
attr inifile omnetpp.ini
attr iterationvars "$net=simple_scenario, $rep=13, $priceratiovalue=9, $a=0, $ctlg=10^3, $F=nrr, $ttl=1000, $D=lce, $R=lru, $csize=10"
attr iterationvars2 "$net=simple_scenario, $rep=13, $priceratiovalue=9, $a=0, $ctlg=10^3, $F=nrr, $ttl=1000, $D=lce, $R=lru, $csize=10, $repetition=0"
attr measurement "$net=simple_scenario, $rep=13, $priceratiovalue=9, $a=0, $ctlg=10^3, $F=nrr, $ttl=1000, $D=lce, $R=lru, $csize=10"
attr net simple_scenario
attr network networks.${net=simple_scenario}_network
attr priceratiovalue 9
attr processid 28395
attr rep 13
attr repetition 0
attr replication #0
attr resultdir results
attr runnumber 1536
attr seedset 13
attr ttl 1000

scalar . 	a 	0
scalar . 	csize 	10
scalar . 	priceratiovalue 	9
scalar . 	rep 	13
scalar . 	ttl 	1000
scalar simple_scenario_network.content_distribution 	repo-0 	3
scalar simple_scenario_network.content_distribution 	repo-1 	4
scalar simple_scenario_network.content_distribution 	client-0 	0
scalar simple_scenario_network.content_distribution 	repo-0_card 	509
scalar simple_scenario_network.content_distribution 	repo-1_card 	491
scalar simple_scenario_network.statistics 	p_hit 	0.0068213155367559
scalar simple_scenario_network.statistics 	interests 	107046.8
scalar simple_scenario_network.statistics 	data 	70997.6
scalar simple_scenario_network.statistics 	hdistance 	2.9492083042065
scalar simple_scenario_network.statistics 	avg_time 	0.001999822542
scalar simple_scenario_network.statistics 	downloads 	180246
scalar simple_scenario_network.statistics 	total_cost 	86799
scalar simple_scenario_network.node[0].core_layer 	interests[0] 	180246
scalar simple_scenario_network.node[0].core_layer 	data[0] 	178393
scalar simple_scenario_network.node[0].core_layer 	repo_int[0] 	176595
scalar simple_scenario_network.node[0].content_store 	p_hit[0] 	0.010280394571863
scalar simple_scenario_network.node[0].content_store 	hits[0] 	1853
scalar simple_scenario_network.node[0].content_store 	misses[0] 	178393
scalar simple_scenario_network.node[1].core_layer 	interests[1] 	91056
scalar simple_scenario_network.node[1].core_layer 	data[1] 	90169
scalar simple_scenario_network.node[1].content_store 	p_hit[1] 	0.009741258126867
scalar simple_scenario_network.node[1].content_store 	hits[1] 	887
scalar simple_scenario_network.node[1].content_store 	misses[1] 	90169
scalar simple_scenario_network.node[2].core_layer 	interests[2] 	87337
scalar simple_scenario_network.node[2].core_layer 	data[2] 	86426
scalar simple_scenario_network.node[2].content_store 	p_hit[2] 	0.010430859773063
scalar simple_scenario_network.node[2].content_store 	hits[2] 	911
scalar simple_scenario_network.node[2].content_store 	misses[2] 	86426
scalar simple_scenario_network.node[3].core_layer 	interests[3] 	90169
scalar simple_scenario_network.node[3].core_layer 	repo_load[3] 	90169
scalar simple_scenario_network.node[3].core_layer 	data[3] 	0
scalar simple_scenario_network.node[3].content_store 	p_hit[3] 	0
scalar simple_scenario_network.node[3].content_store 	hits[3] 	0
scalar simple_scenario_network.node[3].content_store 	misses[3] 	90169
scalar simple_scenario_network.node[4].core_layer 	interests[4] 	86426
scalar simple_scenario_network.node[4].core_layer 	repo_load[4] 	86426
scalar simple_scenario_network.node[4].core_layer 	data[4] 	0
scalar simple_scenario_network.node[4].content_store 	p_hit[4] 	0
scalar simple_scenario_network.node[4].content_store 	hits[4] 	0
scalar simple_scenario_network.node[4].content_store 	misses[4] 	86426
scalar simple_scenario_network.client[0] 	hdistance[0] 	2.9492083042065
scalar simple_scenario_network.client[0] 	downloads[0] 	180246
scalar simple_scenario_network.client[0] 	avg_time[0] 	0.001999822542
