version 2
run General-2-20140410-17:18:20-17771
attr D fix0.01
attr F nrr
attr R lru
attr a 0.8
attr configname General
attr csize 10
attr ctlg 10^4
attr datetime 20140410-17:18:20
attr experiment General
attr inifile omnetpp.ini
attr iterationvars "$net=simple_scenario, $rep=0, $priceratiovalue=2, $a=0.8, $ctlg=10^4, $F=nrr, $ttl=1000, $D=fix0.01, $R=lru, $csize=10"
attr iterationvars2 "$net=simple_scenario, $rep=0, $priceratiovalue=2, $a=0.8, $ctlg=10^4, $F=nrr, $ttl=1000, $D=fix0.01, $R=lru, $csize=10, $repetition=0"
attr measurement "$net=simple_scenario, $rep=0, $priceratiovalue=2, $a=0.8, $ctlg=10^4, $F=nrr, $ttl=1000, $D=fix0.01, $R=lru, $csize=10"
attr net simple_scenario
attr network networks.${net=simple_scenario}_network
attr priceratiovalue 2
attr processid 17771
attr rep 0
attr repetition 0
attr replication #0
attr resultdir results
attr runnumber 2
attr seedset 0
attr ttl 1000

scalar . 	a 	0.8
scalar . 	csize 	10
scalar . 	priceratiovalue 	2
scalar . 	rep 	0
scalar . 	ttl 	1000
scalar simple_scenario_network.content_distribution 	repo-0 	3
scalar simple_scenario_network.content_distribution 	repo-1 	4
scalar simple_scenario_network.content_distribution 	client-0 	0
scalar simple_scenario_network.content_distribution 	repo-0_card 	4915
scalar simple_scenario_network.content_distribution 	repo-1_card 	5085
scalar simple_scenario_network.statistics 	p_hit 	0.050563653132816
scalar simple_scenario_network.statistics 	interests 	99316.4
scalar simple_scenario_network.statistics 	data 	63479
scalar simple_scenario_network.statistics 	hdistance 	2.6311786011261
scalar simple_scenario_network.statistics 	avg_time 	0.001999489136
scalar simple_scenario_network.statistics 	downloads 	179187
scalar simple_scenario_network.statistics 	total_cost 	234443
scalar simple_scenario_network.node[0].core_layer 	interests[0] 	179187
scalar simple_scenario_network.node[0].core_layer 	data[0] 	163317
scalar simple_scenario_network.node[0].core_layer 	repo_int[0] 	154078
scalar simple_scenario_network.node[0].content_store 	p_hit[0] 	0.088566692896248
scalar simple_scenario_network.node[0].content_store 	hits[0] 	15870
scalar simple_scenario_network.node[0].content_store 	misses[0] 	163317
scalar simple_scenario_network.node[1].core_layer 	interests[1] 	76989
scalar simple_scenario_network.node[1].core_layer 	data[1] 	73713
scalar simple_scenario_network.node[1].content_store 	p_hit[1] 	0.042551533335931
scalar simple_scenario_network.node[1].content_store 	hits[1] 	3276
scalar simple_scenario_network.node[1].content_store 	misses[1] 	73713
scalar simple_scenario_network.node[2].core_layer 	interests[2] 	86328
scalar simple_scenario_network.node[2].core_layer 	data[2] 	80365
scalar simple_scenario_network.node[2].content_store 	p_hit[2] 	0.069073765174683
scalar simple_scenario_network.node[2].content_store 	hits[2] 	5963
scalar simple_scenario_network.node[2].content_store 	misses[2] 	80365
scalar simple_scenario_network.node[3].core_layer 	interests[3] 	73713
scalar simple_scenario_network.node[3].core_layer 	repo_load[3] 	73713
scalar simple_scenario_network.node[3].core_layer 	data[3] 	0
scalar simple_scenario_network.node[3].content_store 	p_hit[3] 	0
scalar simple_scenario_network.node[3].content_store 	hits[3] 	0
scalar simple_scenario_network.node[3].content_store 	misses[3] 	73713
scalar simple_scenario_network.node[4].core_layer 	interests[4] 	80365
scalar simple_scenario_network.node[4].core_layer 	repo_load[4] 	80365
scalar simple_scenario_network.node[4].core_layer 	data[4] 	0
scalar simple_scenario_network.node[4].content_store 	p_hit[4] 	0
scalar simple_scenario_network.node[4].content_store 	hits[4] 	0
scalar simple_scenario_network.node[4].content_store 	misses[4] 	80365
scalar simple_scenario_network.client[0] 	hdistance[0] 	2.6311786011261
scalar simple_scenario_network.client[0] 	downloads[0] 	179187
scalar simple_scenario_network.client[0] 	avg_time[0] 	0.001999489136
