version 2
run General-2351-20140423-19:31:24-28323
attr D costprob0.01
attr F nrr
attr R lru
attr a 0
attr configname General
attr csize 2
attr ctlg 10^3
attr datetime 20140423-19:31:24
attr experiment General
attr inifile omnetpp.ini
attr iterationvars "$net=simple_scenario, $rep=7, $priceratiovalue=6, $a=0, $ctlg=10^3, $F=nrr, $ttl=1000, $D=costprob0.01, $R=lru, $csize=2"
attr iterationvars2 "$net=simple_scenario, $rep=7, $priceratiovalue=6, $a=0, $ctlg=10^3, $F=nrr, $ttl=1000, $D=costprob0.01, $R=lru, $csize=2, $repetition=0"
attr measurement "$net=simple_scenario, $rep=7, $priceratiovalue=6, $a=0, $ctlg=10^3, $F=nrr, $ttl=1000, $D=costprob0.01, $R=lru, $csize=2"
attr net simple_scenario
attr network networks.${net=simple_scenario}_network
attr priceratiovalue 6
attr processid 28323
attr rep 7
attr repetition 0
attr replication #0
attr resultdir results
attr runnumber 2351
attr seedset 7
attr ttl 1000

scalar . 	a 	0
scalar . 	csize 	2
scalar . 	priceratiovalue 	6
scalar . 	rep 	7
scalar . 	ttl 	1000
scalar simple_scenario_network.content_distribution 	repo-0 	3
scalar simple_scenario_network.content_distribution 	repo-1 	4
scalar simple_scenario_network.content_distribution 	client-0 	0
scalar simple_scenario_network.content_distribution 	repo-0_card 	505
scalar simple_scenario_network.content_distribution 	repo-1_card 	495
scalar simple_scenario_network.statistics 	p_hit 	0.0019766737633713
scalar simple_scenario_network.statistics 	interests 	107655.6
scalar simple_scenario_network.statistics 	data 	71675.2
scalar simple_scenario_network.statistics 	hdistance 	2.9861479369209
scalar simple_scenario_network.statistics 	avg_time 	0.001999816308
scalar simple_scenario_network.statistics 	downloads 	179901
scalar simple_scenario_network.statistics 	total_cost 	88765
scalar simple_scenario_network.node[0].core_layer 	interests[0] 	179902
scalar simple_scenario_network.node[0].core_layer 	data[0] 	179538
scalar simple_scenario_network.node[0].core_layer 	repo_int[0] 	178838
scalar simple_scenario_network.node[0].content_store 	p_hit[0] 	0.0020233238096297
scalar simple_scenario_network.node[0].content_store 	hits[0] 	364
scalar simple_scenario_network.node[0].content_store 	misses[0] 	179538
scalar simple_scenario_network.node[1].core_layer 	interests[1] 	90694
scalar simple_scenario_network.node[1].core_layer 	data[1] 	90333
scalar simple_scenario_network.node[1].content_store 	p_hit[1] 	0.003980417668203
scalar simple_scenario_network.node[1].content_store 	hits[1] 	361
scalar simple_scenario_network.node[1].content_store 	misses[1] 	90333
scalar simple_scenario_network.node[2].core_layer 	interests[2] 	88844
scalar simple_scenario_network.node[2].core_layer 	data[2] 	88505
scalar simple_scenario_network.node[2].content_store 	p_hit[2] 	0.003815676916843
scalar simple_scenario_network.node[2].content_store 	hits[2] 	339
scalar simple_scenario_network.node[2].content_store 	misses[2] 	88505
scalar simple_scenario_network.node[3].core_layer 	interests[3] 	90333
scalar simple_scenario_network.node[3].core_layer 	repo_load[3] 	90333
scalar simple_scenario_network.node[3].core_layer 	data[3] 	0
scalar simple_scenario_network.node[3].content_store 	p_hit[3] 	0
scalar simple_scenario_network.node[3].content_store 	hits[3] 	0
scalar simple_scenario_network.node[3].content_store 	misses[3] 	90333
scalar simple_scenario_network.node[4].core_layer 	interests[4] 	88505
scalar simple_scenario_network.node[4].core_layer 	repo_load[4] 	88505
scalar simple_scenario_network.node[4].core_layer 	data[4] 	0
scalar simple_scenario_network.node[4].content_store 	p_hit[4] 	0
scalar simple_scenario_network.node[4].content_store 	hits[4] 	0
scalar simple_scenario_network.node[4].content_store 	misses[4] 	88505
scalar simple_scenario_network.client[0] 	hdistance[0] 	2.9861479369209
scalar simple_scenario_network.client[0] 	downloads[0] 	179901
scalar simple_scenario_network.client[0] 	avg_time[0] 	0.001999816308
