version 2
run General-3-20150803-13:05:42-12738
attr C 1e4
attr D lce
attr F spr
attr R lru_repr
attr a 1
attr brates 0.3_0.7_1.5_2.5_3.5
attr configname General
attr ctlg 1e6
attr datetime 20150803-13:05:42
attr experiment General
attr inifile omnetpp.ini
attr iterationvars "$net=abilene_nodelay, $rep=0, $lambda=100, $a=1, $ctlg=1e6, $brates=0.3_0.7_1.5_2.5_3.5, $F=spr, $ttl=1000, $D=lce, $R=lru_repr, $proactiveprob=0.001, $C=1e4, $window=60, $variance=0.05, $mytime=1800001"
attr iterationvars2 "$net=abilene_nodelay, $rep=0, $lambda=100, $a=1, $ctlg=1e6, $brates=0.3_0.7_1.5_2.5_3.5, $F=spr, $ttl=1000, $D=lce, $R=lru_repr, $proactiveprob=0.001, $C=1e4, $window=60, $variance=0.05, $mytime=1800001, $repetition=0"
attr lambda 100
attr measurement "$net=abilene_nodelay, $rep=0, $lambda=100, $a=1, $ctlg=1e6, $brates=0.3_0.7_1.5_2.5_3.5, $F=spr, $ttl=1000, $D=lce, $R=lru_repr, $proactiveprob=0.001, $C=1e4, $window=60, $variance=0.05, $mytime=1800001"
attr mytime 1800001
attr net abilene_nodelay
attr network networks.${net=abilene_nodelay}_network
attr proactiveprob 0.001
attr processid 12738
attr rep 0
attr repetition 0
attr replication #0
attr resultdir results
attr runnumber 3
attr seedset 0
attr ttl 1000
attr variance 0.05
attr window 60

scalar . 	C 	1e4
scalar . 	a 	1
scalar . 	ctlg 	1e6
scalar . 	lambda 	100
scalar . 	mytime 	1800001
scalar . 	proactiveprob 	0.001
scalar . 	rep 	0
scalar . 	ttl 	1000
scalar . 	variance 	0.05
scalar . 	window 	60
scalar abilene_nodelay_network.content_distribution 	repo-0 	5
scalar abilene_nodelay_network.content_distribution 	repo-1 	8
scalar abilene_nodelay_network.content_distribution 	repo-2 	9
scalar abilene_nodelay_network.content_distribution 	repo-3 	0
scalar abilene_nodelay_network.content_distribution 	repo-4 	1
scalar abilene_nodelay_network.content_distribution 	repo-5 	7
scalar abilene_nodelay_network.content_distribution 	repo-6 	6
scalar abilene_nodelay_network.content_distribution 	repo-7 	2
scalar abilene_nodelay_network.content_distribution 	repo-8 	4
scalar abilene_nodelay_network.content_distribution 	repo-9 	10
scalar abilene_nodelay_network.content_distribution 	repo-10 	3
scalar abilene_nodelay_network.content_distribution 	client-0 	10
scalar abilene_nodelay_network.content_distribution 	client-1 	9
scalar abilene_nodelay_network.content_distribution 	client-2 	8
scalar abilene_nodelay_network.content_distribution 	client-3 	7
scalar abilene_nodelay_network.content_distribution 	client-4 	3
scalar abilene_nodelay_network.content_distribution 	client-5 	6
scalar abilene_nodelay_network.content_distribution 	client-6 	5
scalar abilene_nodelay_network.content_distribution 	client-7 	1
scalar abilene_nodelay_network.content_distribution 	client-8 	4
scalar abilene_nodelay_network.content_distribution 	client-9 	0
scalar abilene_nodelay_network.content_distribution 	client-10 	2
scalar abilene_nodelay_network.content_distribution 	repo-0_card 	90891
scalar abilene_nodelay_network.content_distribution 	repo-0_price 	0
scalar abilene_nodelay_network.content_distribution 	repo-1_card 	90362
scalar abilene_nodelay_network.content_distribution 	repo-1_price 	0
scalar abilene_nodelay_network.content_distribution 	repo-2_card 	90927
scalar abilene_nodelay_network.content_distribution 	repo-2_price 	0
scalar abilene_nodelay_network.content_distribution 	repo-3_card 	91098
scalar abilene_nodelay_network.content_distribution 	repo-3_price 	0
scalar abilene_nodelay_network.content_distribution 	repo-4_card 	91231
scalar abilene_nodelay_network.content_distribution 	repo-4_price 	0
scalar abilene_nodelay_network.content_distribution 	repo-5_card 	90932
scalar abilene_nodelay_network.content_distribution 	repo-5_price 	0
scalar abilene_nodelay_network.content_distribution 	repo-6_card 	90752
scalar abilene_nodelay_network.content_distribution 	repo-6_price 	0
scalar abilene_nodelay_network.content_distribution 	repo-7_card 	90980
scalar abilene_nodelay_network.content_distribution 	repo-7_price 	0
scalar abilene_nodelay_network.content_distribution 	repo-8_card 	90629
scalar abilene_nodelay_network.content_distribution 	repo-8_price 	0
scalar abilene_nodelay_network.content_distribution 	repo-9_card 	91219
scalar abilene_nodelay_network.content_distribution 	repo-9_price 	0
scalar abilene_nodelay_network.content_distribution 	repo-10_card 	90979
scalar abilene_nodelay_network.content_distribution 	repo-10_price 	0
scalar abilene_nodelay_network.statistics 	stabilization_time 	36060
scalar abilene_nodelay_network.statistics 	p_hit 	0.51748642822777
scalar abilene_nodelay_network.statistics 	interests 	260358021.90909
scalar abilene_nodelay_network.statistics 	data 	80261246.454545
scalar abilene_nodelay_network.statistics 	hdistance 	0.69630454353334
scalar abilene_nodelay_network.statistics 	avg_time 	0
scalar abilene_nodelay_network.statistics 	downloads 	1979990700
scalar abilene_nodelay_network.statistics 	total_cost 	0
scalar abilene_nodelay_network.statistics 	total_replicas 	1000000
scalar abilene_nodelay_network.statistics 	"representations_downloaded 0.665785:0.0616083:0.0369388:0.029671:0.205996:" 	0
scalar abilene_nodelay_network.statistics 	"slots_per_representation 100:233:500:833:1167:" 	0
scalar abilene_nodelay_network.statistics 	inner_hit 	0.74797085713584
scalar abilene_nodelay_network.statistics 	execution_time 	53138
scalar abilene_nodelay_network.node[0].core_layer 	interests[0] 	206077708
scalar abilene_nodelay_network.node[0].core_layer 	repo_load[0] 	39441066
scalar abilene_nodelay_network.node[0].core_layer 	data[0] 	37521281
scalar abilene_nodelay_network.node[0].core_layer 	slots_sent[face$o[1]->client[0]] 	71086383200
scalar abilene_nodelay_network.node[0].core_layer 	slots_sent[face$o[2]->node[1]] 	1961029205
scalar abilene_nodelay_network.node[0].core_layer 	slots_sent[face$o[3]->node[10]] 	657181559
scalar abilene_nodelay_network.node[0].content_store 	p_hit[0] 	0.62653725263676
scalar abilene_nodelay_network.node[0].content_store 	hits[0] 	129115361
scalar abilene_nodelay_network.node[0].content_store 	misses[0] 	76962347
scalar abilene_nodelay_network.node[0].content_store 	decision_yes[0] 	37521281
scalar abilene_nodelay_network.node[0].content_store 	decision_no[0] 	39441066
scalar abilene_nodelay_network.node[0].content_store 	decision_ratio[0] 	0.48752776471331
scalar abilene_nodelay_network.node[0].content_store 	"representation_breakdown[0] 114897:405:60:18:35:" 	0
scalar abilene_nodelay_network.node[0].proactive_component 	hdistance[0].proactive_component 	3.4411983834917
scalar abilene_nodelay_network.node[0].proactive_component 	downloads[0].proactive_component 	88586
scalar abilene_nodelay_network.node[0].proactive_component 	avg_time[0].proactive_component 	0
scalar abilene_nodelay_network.node[1].core_layer 	interests[1] 	287210456
scalar abilene_nodelay_network.node[1].core_layer 	repo_load[1] 	49597522
scalar abilene_nodelay_network.node[1].core_layer 	data[1] 	102283203
scalar abilene_nodelay_network.node[1].core_layer 	slots_sent[face$o[1]->client[1]] 	60106621044
scalar abilene_nodelay_network.node[1].core_layer 	slots_sent[face$o[2]->node[0]] 	3042993213
scalar abilene_nodelay_network.node[1].core_layer 	slots_sent[face$o[3]->node[10]] 	2315772543
scalar abilene_nodelay_network.node[1].core_layer 	slots_sent[face$o[4]->node[2]] 	5481698764
scalar abilene_nodelay_network.node[1].content_store 	p_hit[1] 	0.47118664440267
scalar abilene_nodelay_network.node[1].content_store 	hits[1] 	135329731
scalar abilene_nodelay_network.node[1].content_store 	misses[1] 	151880725
scalar abilene_nodelay_network.node[1].content_store 	decision_yes[1] 	102283203
scalar abilene_nodelay_network.node[1].content_store 	decision_no[1] 	49597522
scalar abilene_nodelay_network.node[1].content_store 	decision_ratio[1] 	0.67344426358249
scalar abilene_nodelay_network.node[1].content_store 	"representation_breakdown[1] 114776:433:63:30:30:" 	0
scalar abilene_nodelay_network.node[1].proactive_component 	hdistance[1].proactive_component 	2.9429198682766
scalar abilene_nodelay_network.node[1].proactive_component 	downloads[1].proactive_component 	106587
scalar abilene_nodelay_network.node[1].proactive_component 	avg_time[1].proactive_component 	0
scalar abilene_nodelay_network.node[2].core_layer 	interests[2] 	349354762
scalar abilene_nodelay_network.node[2].core_layer 	repo_load[2] 	54054092
scalar abilene_nodelay_network.node[2].core_layer 	data[2] 	154027567
scalar abilene_nodelay_network.node[2].core_layer 	slots_sent[face$o[1]->client[2]] 	60952905014
scalar abilene_nodelay_network.node[2].core_layer 	slots_sent[face$o[2]->node[1]] 	6421889222
scalar abilene_nodelay_network.node[2].core_layer 	slots_sent[face$o[3]->node[3]] 	7496598893
scalar abilene_nodelay_network.node[2].core_layer 	slots_sent[face$o[4]->node[8]] 	3223353477
scalar abilene_nodelay_network.node[2].content_store 	p_hit[2] 	0.40438293209812
scalar abilene_nodelay_network.node[2].content_store 	hits[2] 	141273103
scalar abilene_nodelay_network.node[2].content_store 	misses[2] 	208081659
scalar abilene_nodelay_network.node[2].content_store 	decision_yes[2] 	154027567
scalar abilene_nodelay_network.node[2].content_store 	decision_no[2] 	54054092
scalar abilene_nodelay_network.node[2].content_store 	decision_ratio[2] 	0.74022654250368
scalar abilene_nodelay_network.node[2].content_store 	"representation_breakdown[2] 114880:417:55:24:32:" 	0
scalar abilene_nodelay_network.node[2].proactive_component 	hdistance[2].proactive_component 	2.7213807231755
scalar abilene_nodelay_network.node[2].proactive_component 	downloads[2].proactive_component 	110319
scalar abilene_nodelay_network.node[2].proactive_component 	avg_time[2].proactive_component 	0
scalar abilene_nodelay_network.node[3].core_layer 	interests[3] 	334826935
scalar abilene_nodelay_network.node[3].core_layer 	repo_load[3] 	46621938
scalar abilene_nodelay_network.node[3].core_layer 	data[3] 	141589614
scalar abilene_nodelay_network.node[3].core_layer 	slots_sent[face$o[1]->client[3]] 	63799447067
scalar abilene_nodelay_network.node[3].core_layer 	slots_sent[face$o[2]->node[2]] 	7274962780
scalar abilene_nodelay_network.node[3].core_layer 	slots_sent[face$o[3]->node[4]] 	4840985517
scalar abilene_nodelay_network.node[3].core_layer 	slots_sent[face$o[4]->node[7]] 	3554292161
scalar abilene_nodelay_network.node[3].content_store 	p_hit[3] 	0.43788407584354
scalar abilene_nodelay_network.node[3].content_store 	hits[3] 	146615383
scalar abilene_nodelay_network.node[3].content_store 	misses[3] 	188211552
scalar abilene_nodelay_network.node[3].content_store 	decision_yes[3] 	141589614
scalar abilene_nodelay_network.node[3].content_store 	decision_no[3] 	46621938
scalar abilene_nodelay_network.node[3].content_store 	decision_ratio[3] 	0.75228971067621
scalar abilene_nodelay_network.node[3].content_store 	"representation_breakdown[3] 114993:397:47:25:29:" 	0
scalar abilene_nodelay_network.node[3].proactive_component 	hdistance[3].proactive_component 	2.7526649835192
scalar abilene_nodelay_network.node[3].proactive_component 	downloads[3].proactive_component 	114072
scalar abilene_nodelay_network.node[3].proactive_component 	avg_time[3].proactive_component 	0
scalar abilene_nodelay_network.node[4].core_layer 	interests[4] 	243407355
scalar abilene_nodelay_network.node[4].core_layer 	repo_load[4] 	41677088
scalar abilene_nodelay_network.node[4].core_layer 	data[4] 	66320800
scalar abilene_nodelay_network.node[4].core_layer 	slots_sent[face$o[1]->client[4]] 	67453592616
scalar abilene_nodelay_network.node[4].core_layer 	slots_sent[face$o[2]->node[3]] 	3785418518
scalar abilene_nodelay_network.node[4].core_layer 	slots_sent[face$o[3]->node[5]] 	2620255242
scalar abilene_nodelay_network.node[4].content_store 	p_hit[4] 	0.55630803350211
scalar abilene_nodelay_network.node[4].content_store 	hits[4] 	135409467
scalar abilene_nodelay_network.node[4].content_store 	misses[4] 	107997888
scalar abilene_nodelay_network.node[4].content_store 	decision_yes[4] 	66320800
scalar abilene_nodelay_network.node[4].content_store 	decision_no[4] 	41677088
scalar abilene_nodelay_network.node[4].content_store 	decision_ratio[4] 	0.61409349042085
scalar abilene_nodelay_network.node[4].content_store 	"representation_breakdown[4] 115040:391:46:23:28:" 	0
scalar abilene_nodelay_network.node[4].proactive_component 	hdistance[4].proactive_component 	3.1268870590135
scalar abilene_nodelay_network.node[4].proactive_component 	downloads[4].proactive_component 	99096
scalar abilene_nodelay_network.node[4].proactive_component 	avg_time[4].proactive_component 	0
scalar abilene_nodelay_network.node[5].core_layer 	interests[5] 	213121300
scalar abilene_nodelay_network.node[5].core_layer 	repo_load[5] 	50439459
scalar abilene_nodelay_network.node[5].core_layer 	data[5] 	43904780
scalar abilene_nodelay_network.node[5].core_layer 	slots_sent[face$o[1]->client[5]] 	59650675960
scalar abilene_nodelay_network.node[5].core_layer 	slots_sent[face$o[2]->node[4]] 	1867583810
scalar abilene_nodelay_network.node[5].core_layer 	slots_sent[face$o[3]->node[6]] 	1471462060
scalar abilene_nodelay_network.node[5].content_store 	p_hit[5] 	0.55732139865889
scalar abilene_nodelay_network.node[5].content_store 	hits[5] 	118777061
scalar abilene_nodelay_network.node[5].content_store 	misses[5] 	94344239
scalar abilene_nodelay_network.node[5].content_store 	decision_yes[5] 	43904780
scalar abilene_nodelay_network.node[5].content_store 	decision_no[5] 	50439459
scalar abilene_nodelay_network.node[5].content_store 	decision_ratio[5] 	0.4653678959666
scalar abilene_nodelay_network.node[5].content_store 	"representation_breakdown[5] 115043:361:47:22:34:" 	0
scalar abilene_nodelay_network.node[5].proactive_component 	hdistance[5].proactive_component 	3.4307804422582
scalar abilene_nodelay_network.node[5].proactive_component 	downloads[5].proactive_component 	87822
scalar abilene_nodelay_network.node[5].proactive_component 	avg_time[5].proactive_component 	0
scalar abilene_nodelay_network.node[6].core_layer 	interests[6] 	227011605
scalar abilene_nodelay_network.node[6].core_layer 	repo_load[6] 	39057093
scalar abilene_nodelay_network.node[6].core_layer 	data[6] 	55344492
scalar abilene_nodelay_network.node[6].core_layer 	slots_sent[face$o[1]->client[6]] 	70873466029
scalar abilene_nodelay_network.node[6].core_layer 	slots_sent[face$o[2]->node[5]] 	1821377634
scalar abilene_nodelay_network.node[6].core_layer 	slots_sent[face$o[3]->node[7]] 	2919775772
scalar abilene_nodelay_network.node[6].content_store 	p_hit[6] 	0.58415524616021
scalar abilene_nodelay_network.node[6].content_store 	hits[6] 	132610020
scalar abilene_nodelay_network.node[6].content_store 	misses[6] 	94401585
scalar abilene_nodelay_network.node[6].content_store 	decision_yes[6] 	55344492
scalar abilene_nodelay_network.node[6].content_store 	decision_no[6] 	39057093
scalar abilene_nodelay_network.node[6].content_store 	decision_ratio[6] 	0.58626655474058
scalar abilene_nodelay_network.node[6].content_store 	"representation_breakdown[6] 114965:373:48:26:35:" 	0
scalar abilene_nodelay_network.node[6].proactive_component 	hdistance[6].proactive_component 	3.1838295280258
scalar abilene_nodelay_network.node[6].proactive_component 	downloads[6].proactive_component 	91933
scalar abilene_nodelay_network.node[6].proactive_component 	avg_time[6].proactive_component 	0
scalar abilene_nodelay_network.node[7].core_layer 	interests[7] 	277643868
scalar abilene_nodelay_network.node[7].core_layer 	repo_load[7] 	44981697
scalar abilene_nodelay_network.node[7].core_layer 	data[7] 	90731994
scalar abilene_nodelay_network.node[7].core_layer 	slots_sent[face$o[1]->client[7]] 	69057549265
scalar abilene_nodelay_network.node[7].core_layer 	slots_sent[face$o[2]->node[3]] 	3038962516
scalar abilene_nodelay_network.node[7].core_layer 	slots_sent[face$o[3]->node[6]] 	4130838398
scalar abilene_nodelay_network.node[7].core_layer 	slots_sent[face$o[4]->node[8]] 	2697813604
scalar abilene_nodelay_network.node[7].content_store 	p_hit[7] 	0.51119507166641
scalar abilene_nodelay_network.node[7].content_store 	hits[7] 	141930177
scalar abilene_nodelay_network.node[7].content_store 	misses[7] 	135713691
scalar abilene_nodelay_network.node[7].content_store 	decision_yes[7] 	90731994
scalar abilene_nodelay_network.node[7].content_store 	decision_no[7] 	44981697
scalar abilene_nodelay_network.node[7].content_store 	decision_ratio[7] 	0.66855446441288
scalar abilene_nodelay_network.node[7].content_store 	"representation_breakdown[7] 114925:424:41:25:32:" 	0
scalar abilene_nodelay_network.node[7].proactive_component 	hdistance[7].proactive_component 	2.7768805738658
scalar abilene_nodelay_network.node[7].proactive_component 	downloads[7].proactive_component 	103160
scalar abilene_nodelay_network.node[7].proactive_component 	avg_time[7].proactive_component 	0
scalar abilene_nodelay_network.node[8].core_layer 	interests[8] 	271665426
scalar abilene_nodelay_network.node[8].core_layer 	repo_load[8] 	43939987
scalar abilene_nodelay_network.node[8].core_layer 	data[8] 	85543496
scalar abilene_nodelay_network.node[8].core_layer 	slots_sent[face$o[1]->client[8]] 	67995920274
scalar abilene_nodelay_network.node[8].core_layer 	slots_sent[face$o[2]->node[2]] 	2824849190
scalar abilene_nodelay_network.node[8].core_layer 	slots_sent[face$o[3]->node[7]] 	2708740705
scalar abilene_nodelay_network.node[8].core_layer 	slots_sent[face$o[4]->node[9]] 	3731226088
scalar abilene_nodelay_network.node[8].content_store 	p_hit[8] 	0.52337150550766
scalar abilene_nodelay_network.node[8].content_store 	hits[8] 	142181943
scalar abilene_nodelay_network.node[8].content_store 	misses[8] 	129483483
scalar abilene_nodelay_network.node[8].content_store 	decision_yes[8] 	85543496
scalar abilene_nodelay_network.node[8].content_store 	decision_no[8] 	43939987
scalar abilene_nodelay_network.node[8].content_store 	decision_ratio[8] 	0.66065179911788
scalar abilene_nodelay_network.node[8].content_store 	"representation_breakdown[8] 114731:457:50:28:36:" 	0
scalar abilene_nodelay_network.node[8].proactive_component 	hdistance[8].proactive_component 	2.6713369408916
scalar abilene_nodelay_network.node[8].proactive_component 	downloads[8].proactive_component 	105704
scalar abilene_nodelay_network.node[8].proactive_component 	avg_time[8].proactive_component 	0
scalar abilene_nodelay_network.node[9].core_layer 	interests[9] 	227766936
scalar abilene_nodelay_network.node[9].core_layer 	repo_load[9] 	41166459
scalar abilene_nodelay_network.node[9].core_layer 	data[9] 	55661807
scalar abilene_nodelay_network.node[9].core_layer 	slots_sent[face$o[1]->client[9]] 	66892663173
scalar abilene_nodelay_network.node[9].core_layer 	slots_sent[face$o[2]->node[10]] 	2080238878
scalar abilene_nodelay_network.node[9].core_layer 	slots_sent[face$o[3]->node[8]] 	2736367259
scalar abilene_nodelay_network.node[9].content_store 	p_hit[9] 	0.57488006073015
scalar abilene_nodelay_network.node[9].content_store 	hits[9] 	130938670
scalar abilene_nodelay_network.node[9].content_store 	misses[9] 	96828266
scalar abilene_nodelay_network.node[9].content_store 	decision_yes[9] 	55661807
scalar abilene_nodelay_network.node[9].content_store 	decision_no[9] 	41166459
scalar abilene_nodelay_network.node[9].content_store 	decision_ratio[9] 	0.57485080854386
scalar abilene_nodelay_network.node[9].content_store 	"representation_breakdown[9] 114863:437:46:30:29:" 	0
scalar abilene_nodelay_network.node[9].proactive_component 	hdistance[9].proactive_component 	3.0004553396516
scalar abilene_nodelay_network.node[9].proactive_component 	downloads[9].proactive_component 	94435
scalar abilene_nodelay_network.node[9].proactive_component 	avg_time[9].proactive_component 	0
scalar abilene_nodelay_network.node[10].core_layer 	interests[10] 	225851890
scalar abilene_nodelay_network.node[10].core_layer 	repo_load[10] 	48038958
scalar abilene_nodelay_network.node[10].core_layer 	data[10] 	49944677
scalar abilene_nodelay_network.node[10].core_layer 	slots_sent[face$o[1]->client[10]] 	63869817156
scalar abilene_nodelay_network.node[10].core_layer 	slots_sent[face$o[2]->node[0]] 	757892643
scalar abilene_nodelay_network.node[10].core_layer 	slots_sent[face$o[3]->node[1]] 	1967650253
scalar abilene_nodelay_network.node[10].core_layer 	slots_sent[face$o[4]->node[9]] 	1898362643
scalar abilene_nodelay_network.node[10].content_store 	p_hit[10] 	0.56615977400056
scalar abilene_nodelay_network.node[10].content_store 	hits[10] 	127868255
scalar abilene_nodelay_network.node[10].content_store 	misses[10] 	97983635
scalar abilene_nodelay_network.node[10].content_store 	decision_yes[10] 	49944677
scalar abilene_nodelay_network.node[10].content_store 	decision_no[10] 	48038958
scalar abilene_nodelay_network.node[10].content_store 	decision_ratio[10] 	0.50972468004478
scalar abilene_nodelay_network.node[10].content_store 	"representation_breakdown[10] 115072:385:54:16:28:" 	0
scalar abilene_nodelay_network.node[10].proactive_component 	hdistance[10].proactive_component 	3.0592834847823
scalar abilene_nodelay_network.node[10].proactive_component 	downloads[10].proactive_component 	93871
scalar abilene_nodelay_network.node[10].proactive_component 	avg_time[10].proactive_component 	0
scalar abilene_nodelay_network.client[0] 	hdistance[0].real 	0.72107144651409
scalar abilene_nodelay_network.client[0] 	downloads[0].real 	179996703
scalar abilene_nodelay_network.client[0] 	avg_time[0].real 	0
scalar abilene_nodelay_network.client[1] 	hdistance[1].real 	0.72599785056925
scalar abilene_nodelay_network.client[1] 	downloads[1].real 	180004858
scalar abilene_nodelay_network.client[1] 	avg_time[1].real 	0
scalar abilene_nodelay_network.client[2] 	hdistance[2].real 	0.68607207646522
scalar abilene_nodelay_network.client[2] 	downloads[2].real 	180023339
scalar abilene_nodelay_network.client[2] 	avg_time[2].real 	0
scalar abilene_nodelay_network.client[3] 	hdistance[3].real 	0.66179052732255
scalar abilene_nodelay_network.client[3] 	downloads[3].real 	179995198
scalar abilene_nodelay_network.client[3] 	avg_time[3].real 	0
scalar abilene_nodelay_network.client[4] 	hdistance[4].real 	0.71330232384913
scalar abilene_nodelay_network.client[4] 	downloads[4].real 	180009014
scalar abilene_nodelay_network.client[4] 	avg_time[4].real 	0
scalar abilene_nodelay_network.client[5] 	hdistance[5].real 	0.79297217430421
scalar abilene_nodelay_network.client[5] 	downloads[5].real 	179992085
scalar abilene_nodelay_network.client[5] 	avg_time[5].real 	0
scalar abilene_nodelay_network.client[6] 	hdistance[6].real 	0.71275762470805
scalar abilene_nodelay_network.client[6] 	downloads[6].real 	179994964
scalar abilene_nodelay_network.client[6] 	avg_time[6].real 	0
scalar abilene_nodelay_network.client[7] 	hdistance[7].real 	0.63620904695726
scalar abilene_nodelay_network.client[7] 	downloads[7].real 	180002926
scalar abilene_nodelay_network.client[7] 	avg_time[7].real 	0
scalar abilene_nodelay_network.client[8] 	hdistance[8].real 	0.61132226260146
scalar abilene_nodelay_network.client[8] 	downloads[8].real 	179974787
scalar abilene_nodelay_network.client[8] 	avg_time[8].real 	0
scalar abilene_nodelay_network.client[9] 	hdistance[9].real 	0.68211729652003
scalar abilene_nodelay_network.client[9] 	downloads[9].real 	179991001
scalar abilene_nodelay_network.client[9] 	avg_time[9].real 	0
scalar abilene_nodelay_network.client[10] 	hdistance[10].real 	0.7157373490555
scalar abilene_nodelay_network.client[10] 	downloads[10].real 	180005825
scalar abilene_nodelay_network.client[10] 	avg_time[10].real 	0
