version 2
run General-2276-20140502-05:31:10-11224
attr D costprob0.001
attr F nrr
attr R lru
attr a 0.8
attr configname General
attr csize 1e3
attr ctlg 1e5
attr datetime 20140502-05:31:10
attr experiment General
attr inifile omnetpp.ini
attr iterationvars "$net=three_caches_scenario_3_links, $rep=4, $priceratiovalue=10, $weights=0_0.5_0.5, $a=0.8, $ctlg=1e5, $F=nrr, $ttl=1000, $D=costprob0.001, $xi=1, $R=lru, $csize=1e3"
attr iterationvars2 "$net=three_caches_scenario_3_links, $rep=4, $priceratiovalue=10, $weights=0_0.5_0.5, $a=0.8, $ctlg=1e5, $F=nrr, $ttl=1000, $D=costprob0.001, $xi=1, $R=lru, $csize=1e3, $repetition=0"
attr measurement "$net=three_caches_scenario_3_links, $rep=4, $priceratiovalue=10, $weights=0_0.5_0.5, $a=0.8, $ctlg=1e5, $F=nrr, $ttl=1000, $D=costprob0.001, $xi=1, $R=lru, $csize=1e3"
attr net three_caches_scenario_3_links
attr network networks.${net=three_caches_scenario_3_links}_network
attr priceratiovalue 10
attr processid 11224
attr rep 4
attr repetition 0
attr replication #0
attr resultdir results
attr runnumber 2276
attr seedset 4
attr ttl 1000
attr weights 0_0.5_0.5
attr xi 1

scalar . 	a 	0.8
scalar . 	csize 	1e3
scalar . 	ctlg 	1e5
scalar . 	priceratiovalue 	10
scalar . 	rep 	4
scalar . 	ttl 	1000
scalar . 	xi 	1
scalar three_caches_scenario_3_links_network.content_distribution 	repo-0 	4
scalar three_caches_scenario_3_links_network.content_distribution 	repo-1 	5
scalar three_caches_scenario_3_links_network.content_distribution 	repo-2 	6
scalar three_caches_scenario_3_links_network.content_distribution 	client-0 	0
scalar three_caches_scenario_3_links_network.content_distribution 	repo-0_card 	0
scalar three_caches_scenario_3_links_network.content_distribution 	repo-1_card 	50243
scalar three_caches_scenario_3_links_network.content_distribution 	repo-2_card 	49757
scalar three_caches_scenario_3_links_network.statistics 	p_hit 	0.10370889573379
scalar three_caches_scenario_3_links_network.statistics 	interests 	66646.714285714
scalar three_caches_scenario_3_links_network.statistics 	data 	40991.142857143
scalar three_caches_scenario_3_links_network.statistics 	hdistance 	2.3283385953482
scalar three_caches_scenario_3_links_network.statistics 	avg_time 	0
scalar three_caches_scenario_3_links_network.statistics 	downloads 	179589
scalar three_caches_scenario_3_links_network.statistics 	total_cost 	671098
scalar three_caches_scenario_3_links_network.statistics 	total_replicas 	100000
scalar three_caches_scenario_3_links_network.statistics 	interests_sent 	179589
scalar three_caches_scenario_3_links_network.node[0].core_layer 	interests[0] 	179589
scalar three_caches_scenario_3_links_network.node[0].core_layer 	data[0] 	155732
scalar three_caches_scenario_3_links_network.node[0].core_layer 	repo_int[0] 	131206
scalar three_caches_scenario_3_links_network.node[0].content_store 	p_hit[0] 	0.13284221193948
scalar three_caches_scenario_3_links_network.node[0].content_store 	hits[0] 	23857
scalar three_caches_scenario_3_links_network.node[0].content_store 	misses[0] 	155732
scalar three_caches_scenario_3_links_network.node[0].content_store 	decision_yes[0] 	132
scalar three_caches_scenario_3_links_network.node[0].content_store 	decision_no[0] 	155600
scalar three_caches_scenario_3_links_network.node[1].core_layer 	interests[1] 	0
scalar three_caches_scenario_3_links_network.node[1].core_layer 	data[1] 	0
scalar three_caches_scenario_3_links_network.node[1].content_store 	p_hit[1] 	-nan
scalar three_caches_scenario_3_links_network.node[1].content_store 	hits[1] 	0
scalar three_caches_scenario_3_links_network.node[1].content_store 	misses[1] 	0
scalar three_caches_scenario_3_links_network.node[1].content_store 	decision_yes[1] 	0
scalar three_caches_scenario_3_links_network.node[1].content_store 	decision_no[1] 	0
scalar three_caches_scenario_3_links_network.node[2].core_layer 	interests[2] 	82149
scalar three_caches_scenario_3_links_network.node[2].core_layer 	data[2] 	71218
scalar three_caches_scenario_3_links_network.node[2].content_store 	p_hit[2] 	0.13306309267307
scalar three_caches_scenario_3_links_network.node[2].content_store 	hits[2] 	10931
scalar three_caches_scenario_3_links_network.node[2].content_store 	misses[2] 	71218
scalar three_caches_scenario_3_links_network.node[2].content_store 	decision_yes[2] 	15
scalar three_caches_scenario_3_links_network.node[2].content_store 	decision_no[2] 	71203
scalar three_caches_scenario_3_links_network.node[3].core_layer 	interests[3] 	73583
scalar three_caches_scenario_3_links_network.node[3].core_layer 	data[3] 	59988
scalar three_caches_scenario_3_links_network.node[3].content_store 	p_hit[3] 	0.18475734884416
scalar three_caches_scenario_3_links_network.node[3].content_store 	hits[3] 	13595
scalar three_caches_scenario_3_links_network.node[3].content_store 	misses[3] 	59988
scalar three_caches_scenario_3_links_network.node[3].content_store 	decision_yes[3] 	117
scalar three_caches_scenario_3_links_network.node[3].content_store 	decision_no[3] 	59871
scalar three_caches_scenario_3_links_network.node[4].core_layer 	interests[4] 	0
scalar three_caches_scenario_3_links_network.node[4].core_layer 	data[4] 	0
scalar three_caches_scenario_3_links_network.node[4].content_store 	p_hit[4] 	-nan
scalar three_caches_scenario_3_links_network.node[4].content_store 	hits[4] 	0
scalar three_caches_scenario_3_links_network.node[4].content_store 	misses[4] 	0
scalar three_caches_scenario_3_links_network.node[4].content_store 	decision_yes[4] 	0
scalar three_caches_scenario_3_links_network.node[4].content_store 	decision_no[4] 	0
scalar three_caches_scenario_3_links_network.node[5].core_layer 	interests[5] 	71218
scalar three_caches_scenario_3_links_network.node[5].core_layer 	repo_load[5] 	71218
scalar three_caches_scenario_3_links_network.node[5].core_layer 	data[5] 	0
scalar three_caches_scenario_3_links_network.node[5].content_store 	p_hit[5] 	0
scalar three_caches_scenario_3_links_network.node[5].content_store 	hits[5] 	0
scalar three_caches_scenario_3_links_network.node[5].content_store 	misses[5] 	71218
scalar three_caches_scenario_3_links_network.node[5].content_store 	decision_yes[5] 	0
scalar three_caches_scenario_3_links_network.node[5].content_store 	decision_no[5] 	71218
scalar three_caches_scenario_3_links_network.node[6].core_layer 	interests[6] 	59988
scalar three_caches_scenario_3_links_network.node[6].core_layer 	repo_load[6] 	59988
scalar three_caches_scenario_3_links_network.node[6].core_layer 	data[6] 	0
scalar three_caches_scenario_3_links_network.node[6].content_store 	p_hit[6] 	0
scalar three_caches_scenario_3_links_network.node[6].content_store 	hits[6] 	0
scalar three_caches_scenario_3_links_network.node[6].content_store 	misses[6] 	59988
scalar three_caches_scenario_3_links_network.node[6].content_store 	decision_yes[6] 	0
scalar three_caches_scenario_3_links_network.node[6].content_store 	decision_no[6] 	59988
scalar three_caches_scenario_3_links_network.client[0] 	hdistance[0] 	2.3283385953482
scalar three_caches_scenario_3_links_network.client[0] 	downloads[0] 	179589
scalar three_caches_scenario_3_links_network.client[0] 	avg_time[0] 	0
scalar three_caches_scenario_3_links_network.client[0] 	interests_sent[0] 	179589
