version 2
run General-1-20150720-19:00:39-16153
attr C 116667
attr D lce
attr F spr
attr R lru
attr a 1
attr brates 1
attr configname General
attr ctlg 1e6
attr datetime 20150720-19:00:39
attr experiment General
attr inifile omnetpp.ini
attr iterationvars "$net=abilene_nodelay, $rep=0, $lambda=100, $a=1, $ctlg=1e6, $brates=1, $F=spr, $ttl=1000, $D=lce, $R=lru, $C=116667, $window=60, $variance=0.05, $mytime=1800"
attr iterationvars2 "$net=abilene_nodelay, $rep=0, $lambda=100, $a=1, $ctlg=1e6, $brates=1, $F=spr, $ttl=1000, $D=lce, $R=lru, $C=116667, $window=60, $variance=0.05, $mytime=1800, $repetition=0"
attr lambda 100
attr measurement "$net=abilene_nodelay, $rep=0, $lambda=100, $a=1, $ctlg=1e6, $brates=1, $F=spr, $ttl=1000, $D=lce, $R=lru, $C=116667, $window=60, $variance=0.05, $mytime=1800"
attr mytime 1800
attr net abilene_nodelay
attr network networks.${net=abilene_nodelay}_network
attr processid 16153
attr rep 0
attr repetition 0
attr replication #0
attr resultdir results
attr runnumber 1
attr seedset 0
attr ttl 1000
attr variance 0.05
attr window 60

scalar . 	C 	116667
scalar . 	a 	1
scalar . 	brates 	1
scalar . 	ctlg 	1e6
scalar . 	lambda 	100
scalar . 	mytime 	1800
scalar . 	rep 	0
scalar . 	ttl 	1000
scalar . 	variance 	0.05
scalar . 	window 	60
scalar abilene_nodelay_network.content_distribution 	repo-0 	5
scalar abilene_nodelay_network.content_distribution 	repo-1 	8
scalar abilene_nodelay_network.content_distribution 	repo-2 	9
scalar abilene_nodelay_network.content_distribution 	repo-3 	0
scalar abilene_nodelay_network.content_distribution 	repo-4 	1
scalar abilene_nodelay_network.content_distribution 	repo-5 	7
scalar abilene_nodelay_network.content_distribution 	repo-6 	6
scalar abilene_nodelay_network.content_distribution 	repo-7 	2
scalar abilene_nodelay_network.content_distribution 	repo-8 	4
scalar abilene_nodelay_network.content_distribution 	repo-9 	10
scalar abilene_nodelay_network.content_distribution 	repo-10 	3
scalar abilene_nodelay_network.content_distribution 	client-0 	10
scalar abilene_nodelay_network.content_distribution 	client-1 	9
scalar abilene_nodelay_network.content_distribution 	client-2 	8
scalar abilene_nodelay_network.content_distribution 	client-3 	7
scalar abilene_nodelay_network.content_distribution 	client-4 	3
scalar abilene_nodelay_network.content_distribution 	client-5 	6
scalar abilene_nodelay_network.content_distribution 	client-6 	5
scalar abilene_nodelay_network.content_distribution 	client-7 	1
scalar abilene_nodelay_network.content_distribution 	client-8 	4
scalar abilene_nodelay_network.content_distribution 	client-9 	0
scalar abilene_nodelay_network.content_distribution 	client-10 	2
scalar abilene_nodelay_network.content_distribution 	repo-0_card 	90891
scalar abilene_nodelay_network.content_distribution 	repo-0_price 	0
scalar abilene_nodelay_network.content_distribution 	repo-1_card 	90362
scalar abilene_nodelay_network.content_distribution 	repo-1_price 	0
scalar abilene_nodelay_network.content_distribution 	repo-2_card 	90927
scalar abilene_nodelay_network.content_distribution 	repo-2_price 	0
scalar abilene_nodelay_network.content_distribution 	repo-3_card 	91098
scalar abilene_nodelay_network.content_distribution 	repo-3_price 	0
scalar abilene_nodelay_network.content_distribution 	repo-4_card 	91231
scalar abilene_nodelay_network.content_distribution 	repo-4_price 	0
scalar abilene_nodelay_network.content_distribution 	repo-5_card 	90932
scalar abilene_nodelay_network.content_distribution 	repo-5_price 	0
scalar abilene_nodelay_network.content_distribution 	repo-6_card 	90752
scalar abilene_nodelay_network.content_distribution 	repo-6_price 	0
scalar abilene_nodelay_network.content_distribution 	repo-7_card 	90980
scalar abilene_nodelay_network.content_distribution 	repo-7_price 	0
scalar abilene_nodelay_network.content_distribution 	repo-8_card 	90629
scalar abilene_nodelay_network.content_distribution 	repo-8_price 	0
scalar abilene_nodelay_network.content_distribution 	repo-9_card 	91219
scalar abilene_nodelay_network.content_distribution 	repo-9_price 	0
scalar abilene_nodelay_network.content_distribution 	repo-10_card 	90979
scalar abilene_nodelay_network.content_distribution 	repo-10_price 	0
scalar abilene_nodelay_network.statistics 	stabilization_time 	4865.3
scalar abilene_nodelay_network.statistics 	p_hit 	0.51921604649364
scalar abilene_nodelay_network.statistics 	interests 	259695.36363636
scalar abilene_nodelay_network.statistics 	data 	79757.909090909
scalar abilene_nodelay_network.statistics 	hdistance 	0.69386168303756
scalar abilene_nodelay_network.statistics 	avg_time 	0
scalar abilene_nodelay_network.statistics 	downloads 	1979312
scalar abilene_nodelay_network.statistics 	total_cost 	0
scalar abilene_nodelay_network.statistics 	total_replicas 	1000000
scalar abilene_nodelay_network.statistics 	"representations_downloaded 1:" 	0
scalar abilene_nodelay_network.statistics 	"slots_per_representation 100:" 	0
scalar abilene_nodelay_network.statistics 	inner_hit 	0.74936038381013
scalar abilene_nodelay_network.statistics 	execution_time 	207
scalar abilene_nodelay_network.node[0].core_layer 	interests[0] 	205267
scalar abilene_nodelay_network.node[0].core_layer 	repo_load[0] 	39174
scalar abilene_nodelay_network.node[0].core_layer 	data[0] 	39403
scalar abilene_nodelay_network.node[0].core_layer 	slots_sent[face$o[1]->client[0]] 	17965500
scalar abilene_nodelay_network.node[0].core_layer 	slots_sent[face$o[2]->node[1]] 	1897900
scalar abilene_nodelay_network.node[0].core_layer 	slots_sent[face$o[3]->node[10]] 	663300
scalar abilene_nodelay_network.node[0].content_store 	p_hit[0] 	0.617196139662
scalar abilene_nodelay_network.node[0].content_store 	hits[0] 	126690
scalar abilene_nodelay_network.node[0].content_store 	misses[0] 	78577
scalar abilene_nodelay_network.node[0].content_store 	decision_yes[0] 	39403
scalar abilene_nodelay_network.node[0].content_store 	decision_no[0] 	39174
scalar abilene_nodelay_network.node[0].content_store 	decision_ratio[0] 	0.50145716940072
scalar abilene_nodelay_network.node[1].core_layer 	interests[1] 	287419
scalar abilene_nodelay_network.node[1].core_layer 	repo_load[1] 	49425
scalar abilene_nodelay_network.node[1].core_layer 	data[1] 	100913
scalar abilene_nodelay_network.node[1].core_layer 	slots_sent[face$o[1]->client[1]] 	17954300
scalar abilene_nodelay_network.node[1].core_layer 	slots_sent[face$o[2]->node[0]] 	3149200
scalar abilene_nodelay_network.node[1].core_layer 	slots_sent[face$o[3]->node[10]] 	2282800
scalar abilene_nodelay_network.node[1].core_layer 	slots_sent[face$o[4]->node[2]] 	5355600
scalar abilene_nodelay_network.node[1].content_store 	p_hit[1] 	0.47693785031609
scalar abilene_nodelay_network.node[1].content_store 	hits[1] 	137081
scalar abilene_nodelay_network.node[1].content_store 	misses[1] 	150338
scalar abilene_nodelay_network.node[1].content_store 	decision_yes[1] 	100913
scalar abilene_nodelay_network.node[1].content_store 	decision_no[1] 	49425
scalar abilene_nodelay_network.node[1].content_store 	decision_ratio[1] 	0.67124080405486
scalar abilene_nodelay_network.node[2].core_layer 	interests[2] 	347611
scalar abilene_nodelay_network.node[2].core_layer 	repo_load[2] 	53512
scalar abilene_nodelay_network.node[2].core_layer 	data[2] 	152606
scalar abilene_nodelay_network.node[2].core_layer 	slots_sent[face$o[1]->client[2]] 	17986200
scalar abilene_nodelay_network.node[2].core_layer 	slots_sent[face$o[2]->node[1]] 	6277400
scalar abilene_nodelay_network.node[2].core_layer 	slots_sent[face$o[3]->node[3]] 	7343500
scalar abilene_nodelay_network.node[2].core_layer 	slots_sent[face$o[4]->node[8]] 	3154000
scalar abilene_nodelay_network.node[2].content_store 	p_hit[2] 	0.40704408088352
scalar abilene_nodelay_network.node[2].content_store 	hits[2] 	141493
scalar abilene_nodelay_network.node[2].content_store 	misses[2] 	206118
scalar abilene_nodelay_network.node[2].content_store 	decision_yes[2] 	152606
scalar abilene_nodelay_network.node[2].content_store 	decision_no[2] 	53512
scalar abilene_nodelay_network.node[2].content_store 	decision_ratio[2] 	0.74038172309066
scalar abilene_nodelay_network.node[3].core_layer 	interests[3] 	333342
scalar abilene_nodelay_network.node[3].core_layer 	repo_load[3] 	46269
scalar abilene_nodelay_network.node[3].core_layer 	data[3] 	140473
scalar abilene_nodelay_network.node[3].core_layer 	slots_sent[face$o[1]->client[3]] 	18003600
scalar abilene_nodelay_network.node[3].core_layer 	slots_sent[face$o[2]->node[2]] 	7125000
scalar abilene_nodelay_network.node[3].core_layer 	slots_sent[face$o[3]->node[4]] 	4744200
scalar abilene_nodelay_network.node[3].core_layer 	slots_sent[face$o[4]->node[7]] 	3461400
scalar abilene_nodelay_network.node[3].content_store 	p_hit[3] 	0.4397885654973
scalar abilene_nodelay_network.node[3].content_store 	hits[3] 	146600
scalar abilene_nodelay_network.node[3].content_store 	misses[3] 	186742
scalar abilene_nodelay_network.node[3].content_store 	decision_yes[3] 	140473
scalar abilene_nodelay_network.node[3].content_store 	decision_no[3] 	46269
scalar abilene_nodelay_network.node[3].content_store 	decision_ratio[3] 	0.75223034989451
scalar abilene_nodelay_network.node[4].core_layer 	interests[4] 	243826
scalar abilene_nodelay_network.node[4].core_layer 	repo_load[4] 	41780
scalar abilene_nodelay_network.node[4].core_layer 	data[4] 	65641
scalar abilene_nodelay_network.node[4].core_layer 	slots_sent[face$o[1]->client[4]] 	18027400
scalar abilene_nodelay_network.node[4].core_layer 	slots_sent[face$o[2]->node[3]] 	3713200
scalar abilene_nodelay_network.node[4].core_layer 	slots_sent[face$o[3]->node[5]] 	2642000
scalar abilene_nodelay_network.node[4].content_store 	p_hit[4] 	0.55943582718824
scalar abilene_nodelay_network.node[4].content_store 	hits[4] 	136405
scalar abilene_nodelay_network.node[4].content_store 	misses[4] 	107421
scalar abilene_nodelay_network.node[4].content_store 	decision_yes[4] 	65641
scalar abilene_nodelay_network.node[4].content_store 	decision_no[4] 	41780
scalar abilene_nodelay_network.node[4].content_store 	decision_ratio[4] 	0.61106301374964
scalar abilene_nodelay_network.node[5].core_layer 	interests[5] 	212741
scalar abilene_nodelay_network.node[5].core_layer 	repo_load[5] 	50034
scalar abilene_nodelay_network.node[5].core_layer 	data[5] 	44966
scalar abilene_nodelay_network.node[5].core_layer 	slots_sent[face$o[1]->client[5]] 	18008300
scalar abilene_nodelay_network.node[5].core_layer 	slots_sent[face$o[2]->node[4]] 	1819900
scalar abilene_nodelay_network.node[5].core_layer 	slots_sent[face$o[3]->node[6]] 	1445900
scalar abilene_nodelay_network.node[5].content_store 	p_hit[5] 	0.55344761940576
scalar abilene_nodelay_network.node[5].content_store 	hits[5] 	117741
scalar abilene_nodelay_network.node[5].content_store 	misses[5] 	95000
scalar abilene_nodelay_network.node[5].content_store 	decision_yes[5] 	44966
scalar abilene_nodelay_network.node[5].content_store 	decision_no[5] 	50034
scalar abilene_nodelay_network.node[5].content_store 	decision_ratio[5] 	0.47332631578947
scalar abilene_nodelay_network.node[6].core_layer 	interests[6] 	227295
scalar abilene_nodelay_network.node[6].core_layer 	repo_load[6] 	38862
scalar abilene_nodelay_network.node[6].core_layer 	data[6] 	54199
scalar abilene_nodelay_network.node[6].core_layer 	slots_sent[face$o[1]->client[6]] 	18026400
scalar abilene_nodelay_network.node[6].core_layer 	slots_sent[face$o[2]->node[5]] 	1854600
scalar abilene_nodelay_network.node[6].core_layer 	slots_sent[face$o[3]->node[7]] 	2848500
scalar abilene_nodelay_network.node[6].content_store 	p_hit[6] 	0.59057172397105
scalar abilene_nodelay_network.node[6].content_store 	hits[6] 	134234
scalar abilene_nodelay_network.node[6].content_store 	misses[6] 	93061
scalar abilene_nodelay_network.node[6].content_store 	decision_yes[6] 	54199
scalar abilene_nodelay_network.node[6].content_store 	decision_no[6] 	38862
scalar abilene_nodelay_network.node[6].content_store 	decision_ratio[6] 	0.58240294000709
scalar abilene_nodelay_network.node[7].core_layer 	interests[7] 	275876
scalar abilene_nodelay_network.node[7].core_layer 	repo_load[7] 	44909
scalar abilene_nodelay_network.node[7].core_layer 	data[7] 	89505
scalar abilene_nodelay_network.node[7].core_layer 	slots_sent[face$o[1]->client[7]] 	17975600
scalar abilene_nodelay_network.node[7].core_layer 	slots_sent[face$o[2]->node[3]] 	2990600
scalar abilene_nodelay_network.node[7].core_layer 	slots_sent[face$o[3]->node[6]] 	3974000
scalar abilene_nodelay_network.node[7].core_layer 	slots_sent[face$o[4]->node[8]] 	2647400
scalar abilene_nodelay_network.node[7].content_store 	p_hit[7] 	0.51277385492033
scalar abilene_nodelay_network.node[7].content_store 	hits[7] 	141462
scalar abilene_nodelay_network.node[7].content_store 	misses[7] 	134414
scalar abilene_nodelay_network.node[7].content_store 	decision_yes[7] 	89505
scalar abilene_nodelay_network.node[7].content_store 	decision_no[7] 	44909
scalar abilene_nodelay_network.node[7].content_store 	decision_ratio[7] 	0.66589045783921
scalar abilene_nodelay_network.node[8].core_layer 	interests[8] 	269826
scalar abilene_nodelay_network.node[8].core_layer 	repo_load[8] 	43366
scalar abilene_nodelay_network.node[8].core_layer 	data[8] 	84813
scalar abilene_nodelay_network.node[8].core_layer 	slots_sent[face$o[1]->client[8]] 	17952200
scalar abilene_nodelay_network.node[8].core_layer 	slots_sent[face$o[2]->node[2]] 	2780000
scalar abilene_nodelay_network.node[8].core_layer 	slots_sent[face$o[3]->node[7]] 	2640600
scalar abilene_nodelay_network.node[8].core_layer 	slots_sent[face$o[4]->node[9]] 	3609800
scalar abilene_nodelay_network.node[8].content_store 	p_hit[8] 	0.52495682402734
scalar abilene_nodelay_network.node[8].content_store 	hits[8] 	141647
scalar abilene_nodelay_network.node[8].content_store 	misses[8] 	128179
scalar abilene_nodelay_network.node[8].content_store 	decision_yes[8] 	84813
scalar abilene_nodelay_network.node[8].content_store 	decision_no[8] 	43366
scalar abilene_nodelay_network.node[8].content_store 	decision_ratio[8] 	0.66167624961967
scalar abilene_nodelay_network.node[9].core_layer 	interests[9] 	227336
scalar abilene_nodelay_network.node[9].core_layer 	repo_load[9] 	41015
scalar abilene_nodelay_network.node[9].core_layer 	data[9] 	54633
scalar abilene_nodelay_network.node[9].core_layer 	slots_sent[face$o[1]->client[9]] 	17981300
scalar abilene_nodelay_network.node[9].core_layer 	slots_sent[face$o[2]->node[10]] 	2072400
scalar abilene_nodelay_network.node[9].core_layer 	slots_sent[face$o[3]->node[8]] 	2679900
scalar abilene_nodelay_network.node[9].content_store 	p_hit[9] 	0.57926593236443
scalar abilene_nodelay_network.node[9].content_store 	hits[9] 	131688
scalar abilene_nodelay_network.node[9].content_store 	misses[9] 	95648
scalar abilene_nodelay_network.node[9].content_store 	decision_yes[9] 	54633
scalar abilene_nodelay_network.node[9].content_store 	decision_no[9] 	41015
scalar abilene_nodelay_network.node[9].content_store 	decision_ratio[9] 	0.5711881063901
scalar abilene_nodelay_network.node[10].core_layer 	interests[10] 	226110
scalar abilene_nodelay_network.node[10].core_layer 	repo_load[10] 	47748
scalar abilene_nodelay_network.node[10].core_layer 	data[10] 	50185
scalar abilene_nodelay_network.node[10].core_layer 	slots_sent[face$o[1]->client[10]] 	18050400
scalar abilene_nodelay_network.node[10].core_layer 	slots_sent[face$o[2]->node[0]] 	791100
scalar abilene_nodelay_network.node[10].core_layer 	slots_sent[face$o[3]->node[1]] 	1916000
scalar abilene_nodelay_network.node[10].core_layer 	slots_sent[face$o[4]->node[9]] 	1853500
scalar abilene_nodelay_network.node[10].content_store 	p_hit[10] 	0.56687895272213
scalar abilene_nodelay_network.node[10].content_store 	hits[10] 	128177
scalar abilene_nodelay_network.node[10].content_store 	misses[10] 	97933
scalar abilene_nodelay_network.node[10].content_store 	decision_yes[10] 	50185
scalar abilene_nodelay_network.node[10].content_store 	decision_no[10] 	47748
scalar abilene_nodelay_network.node[10].content_store 	decision_ratio[10] 	0.51244217985766
scalar abilene_nodelay_network.client[0] 	hdistance[0].real 	0.73056135370571
scalar abilene_nodelay_network.client[0] 	downloads[0].real 	179655
scalar abilene_nodelay_network.client[0] 	avg_time[0].real 	0
scalar abilene_nodelay_network.client[1] 	hdistance[1].real 	0.72177695593813
scalar abilene_nodelay_network.client[1] 	downloads[1].real 	179543
scalar abilene_nodelay_network.client[1] 	avg_time[1].real 	0
scalar abilene_nodelay_network.client[2] 	hdistance[2].real 	0.68071632696179
scalar abilene_nodelay_network.client[2] 	downloads[2].real 	179862
scalar abilene_nodelay_network.client[2] 	avg_time[2].real 	0
scalar abilene_nodelay_network.client[3] 	hdistance[3].real 	0.66031793641272
scalar abilene_nodelay_network.client[3] 	downloads[3].real 	180036
scalar abilene_nodelay_network.client[3] 	avg_time[3].real 	0
scalar abilene_nodelay_network.client[4] 	hdistance[4].real 	0.7125320345696
scalar abilene_nodelay_network.client[4] 	downloads[4].real 	180274
scalar abilene_nodelay_network.client[4] 	avg_time[4].real 	0
scalar abilene_nodelay_network.client[5] 	hdistance[5].real 	0.79472243354454
scalar abilene_nodelay_network.client[5] 	downloads[5].real 	180083
scalar abilene_nodelay_network.client[5] 	avg_time[5].real 	0
scalar abilene_nodelay_network.client[6] 	hdistance[6].real 	0.70206474947855
scalar abilene_nodelay_network.client[6] 	downloads[6].real 	180264
scalar abilene_nodelay_network.client[6] 	avg_time[6].real 	0
scalar abilene_nodelay_network.client[7] 	hdistance[7].real 	0.63015420903891
scalar abilene_nodelay_network.client[7] 	downloads[7].real 	179756
scalar abilene_nodelay_network.client[7] 	avg_time[7].real 	0
scalar abilene_nodelay_network.client[8] 	hdistance[8].real 	0.60575862568374
scalar abilene_nodelay_network.client[8] 	downloads[8].real 	179522
scalar abilene_nodelay_network.client[8] 	avg_time[8].real 	0
scalar abilene_nodelay_network.client[9] 	hdistance[9].real 	0.67845483919405
scalar abilene_nodelay_network.client[9] 	downloads[9].real 	179813
scalar abilene_nodelay_network.client[9] 	avg_time[9].real 	0
scalar abilene_nodelay_network.client[10] 	hdistance[10].real 	0.71541904888535
scalar abilene_nodelay_network.client[10] 	downloads[10].real 	180504
scalar abilene_nodelay_network.client[10] 	avg_time[10].real 	0
