version 2
run General-2327-20140425-16:42:08-14919
attr D costprob0.2
attr F nrr
attr R lru
attr a 1.2
attr configname General
attr csize 9
attr ctlg 10^3
attr datetime 20140425-16:42:08
attr experiment General
attr inifile omnetpp.ini
attr iterationvars "$net=one_cache_scenario, $rep=20, $priceratiovalue=4, $a=1.2, $ctlg=10^3, $F=nrr, $ttl=1000, $D=costprob0.2, $R=lru, $csize=9"
attr iterationvars2 "$net=one_cache_scenario, $rep=20, $priceratiovalue=4, $a=1.2, $ctlg=10^3, $F=nrr, $ttl=1000, $D=costprob0.2, $R=lru, $csize=9, $repetition=0"
attr measurement "$net=one_cache_scenario, $rep=20, $priceratiovalue=4, $a=1.2, $ctlg=10^3, $F=nrr, $ttl=1000, $D=costprob0.2, $R=lru, $csize=9"
attr net one_cache_scenario
attr network networks.${net=one_cache_scenario}_network
attr priceratiovalue 4
attr processid 14919
attr rep 20
attr repetition 0
attr replication #0
attr resultdir results
attr runnumber 2327
attr seedset 20
attr ttl 1000

scalar . 	a 	1.2
scalar . 	csize 	9
scalar . 	priceratiovalue 	4
scalar . 	rep 	20
scalar . 	ttl 	1000
scalar one_cache_scenario_network.content_distribution 	repo-0 	3
scalar one_cache_scenario_network.content_distribution 	repo-1 	4
scalar one_cache_scenario_network.content_distribution 	client-0 	0
scalar one_cache_scenario_network.content_distribution 	repo-0_card 	474
scalar one_cache_scenario_network.content_distribution 	repo-1_card 	526
scalar one_cache_scenario_network.statistics 	p_hit 	0.22230136942446
scalar one_cache_scenario_network.statistics 	interests 	74965.8
scalar one_cache_scenario_network.statistics 	data 	38867.2
scalar one_cache_scenario_network.statistics 	hdistance 	1.0766954951161
scalar one_cache_scenario_network.statistics 	avg_time 	0
scalar one_cache_scenario_network.statistics 	downloads 	180493
scalar one_cache_scenario_network.statistics 	total_cost 	48706
scalar one_cache_scenario_network.statistics 	interests_sent 	180493
scalar one_cache_scenario_network.node[0].core_layer 	interests[0] 	180493
scalar one_cache_scenario_network.node[0].core_layer 	data[0] 	97168
scalar one_cache_scenario_network.node[0].core_layer 	repo_int[0] 	97168
scalar one_cache_scenario_network.node[0].content_store 	p_hit[0] 	0.46165225244192
scalar one_cache_scenario_network.node[0].content_store 	hits[0] 	83325
scalar one_cache_scenario_network.node[0].content_store 	misses[0] 	97168
scalar one_cache_scenario_network.node[0].content_store 	decision_yes[0] 	9974
scalar one_cache_scenario_network.node[0].content_store 	decision_no[0] 	87194
scalar one_cache_scenario_network.node[1].core_layer 	interests[1] 	48380
scalar one_cache_scenario_network.node[1].core_layer 	data[1] 	48380
scalar one_cache_scenario_network.node[1].content_store 	p_hit[1] 	0
scalar one_cache_scenario_network.node[1].content_store 	hits[1] 	0
scalar one_cache_scenario_network.node[1].content_store 	misses[1] 	48380
scalar one_cache_scenario_network.node[1].content_store 	decision_yes[1] 	0
scalar one_cache_scenario_network.node[1].content_store 	decision_no[1] 	48380
scalar one_cache_scenario_network.node[2].core_layer 	interests[2] 	48788
scalar one_cache_scenario_network.node[2].core_layer 	data[2] 	48788
scalar one_cache_scenario_network.node[2].content_store 	p_hit[2] 	0
scalar one_cache_scenario_network.node[2].content_store 	hits[2] 	0
scalar one_cache_scenario_network.node[2].content_store 	misses[2] 	48788
scalar one_cache_scenario_network.node[2].content_store 	decision_yes[2] 	0
scalar one_cache_scenario_network.node[2].content_store 	decision_no[2] 	48788
scalar one_cache_scenario_network.node[3].core_layer 	interests[3] 	48380
scalar one_cache_scenario_network.node[3].core_layer 	repo_load[3] 	48380
scalar one_cache_scenario_network.node[3].core_layer 	data[3] 	0
scalar one_cache_scenario_network.node[3].content_store 	p_hit[3] 	0
scalar one_cache_scenario_network.node[3].content_store 	hits[3] 	0
scalar one_cache_scenario_network.node[3].content_store 	misses[3] 	48380
scalar one_cache_scenario_network.node[3].content_store 	decision_yes[3] 	0
scalar one_cache_scenario_network.node[3].content_store 	decision_no[3] 	48380
scalar one_cache_scenario_network.node[4].core_layer 	interests[4] 	48788
scalar one_cache_scenario_network.node[4].core_layer 	repo_load[4] 	48788
scalar one_cache_scenario_network.node[4].core_layer 	data[4] 	0
scalar one_cache_scenario_network.node[4].content_store 	p_hit[4] 	0
scalar one_cache_scenario_network.node[4].content_store 	hits[4] 	0
scalar one_cache_scenario_network.node[4].content_store 	misses[4] 	48788
scalar one_cache_scenario_network.node[4].content_store 	decision_yes[4] 	0
scalar one_cache_scenario_network.node[4].content_store 	decision_no[4] 	48788
scalar one_cache_scenario_network.client[0] 	hdistance[0] 	1.0766954951161
scalar one_cache_scenario_network.client[0] 	downloads[0] 	180493
scalar one_cache_scenario_network.client[0] 	avg_time[0] 	0
scalar one_cache_scenario_network.client[0] 	interests_sent[0] 	180493
