version 2
run General-1007-20140425-16:14:57-13499
attr D costprob0.2
attr F nrr
attr R lru
attr a 1.2
attr configname General
attr csize 9
attr ctlg 10^3
attr datetime 20140425-16:14:57
attr experiment General
attr inifile omnetpp.ini
attr iterationvars "$net=one_cache_scenario, $rep=9, $priceratiovalue=4, $a=1.2, $ctlg=10^3, $F=nrr, $ttl=1000, $D=costprob0.2, $R=lru, $csize=9"
attr iterationvars2 "$net=one_cache_scenario, $rep=9, $priceratiovalue=4, $a=1.2, $ctlg=10^3, $F=nrr, $ttl=1000, $D=costprob0.2, $R=lru, $csize=9, $repetition=0"
attr measurement "$net=one_cache_scenario, $rep=9, $priceratiovalue=4, $a=1.2, $ctlg=10^3, $F=nrr, $ttl=1000, $D=costprob0.2, $R=lru, $csize=9"
attr net one_cache_scenario
attr network networks.${net=one_cache_scenario}_network
attr priceratiovalue 4
attr processid 13499
attr rep 9
attr repetition 0
attr replication #0
attr resultdir results
attr runnumber 1007
attr seedset 9
attr ttl 1000

scalar . 	a 	1.2
scalar . 	csize 	9
scalar . 	priceratiovalue 	4
scalar . 	rep 	9
scalar . 	ttl 	1000
scalar one_cache_scenario_network.content_distribution 	repo-0 	3
scalar one_cache_scenario_network.content_distribution 	repo-1 	4
scalar one_cache_scenario_network.content_distribution 	client-0 	0
scalar one_cache_scenario_network.content_distribution 	repo-0_card 	499
scalar one_cache_scenario_network.content_distribution 	repo-1_card 	501
scalar one_cache_scenario_network.statistics 	p_hit 	0.21753332321724
scalar one_cache_scenario_network.statistics 	interests 	75127.8
scalar one_cache_scenario_network.statistics 	data 	39190
scalar one_cache_scenario_network.statistics 	hdistance 	1.0904952445614
scalar one_cache_scenario_network.statistics 	avg_time 	0
scalar one_cache_scenario_network.statistics 	downloads 	179689
scalar one_cache_scenario_network.statistics 	total_cost 	45328
scalar one_cache_scenario_network.statistics 	interests_sent 	179689
scalar one_cache_scenario_network.node[0].core_layer 	interests[0] 	179689
scalar one_cache_scenario_network.node[0].core_layer 	data[0] 	97975
scalar one_cache_scenario_network.node[0].core_layer 	repo_int[0] 	97975
scalar one_cache_scenario_network.node[0].content_store 	p_hit[0] 	0.45475237771928
scalar one_cache_scenario_network.node[0].content_store 	hits[0] 	81714
scalar one_cache_scenario_network.node[0].content_store 	misses[0] 	97975
scalar one_cache_scenario_network.node[0].content_store 	decision_yes[0] 	9019
scalar one_cache_scenario_network.node[0].content_store 	decision_no[0] 	88956
scalar one_cache_scenario_network.node[1].core_layer 	interests[1] 	55086
scalar one_cache_scenario_network.node[1].core_layer 	data[1] 	55086
scalar one_cache_scenario_network.node[1].content_store 	p_hit[1] 	0
scalar one_cache_scenario_network.node[1].content_store 	hits[1] 	0
scalar one_cache_scenario_network.node[1].content_store 	misses[1] 	55086
scalar one_cache_scenario_network.node[1].content_store 	decision_yes[1] 	0
scalar one_cache_scenario_network.node[1].content_store 	decision_no[1] 	55086
scalar one_cache_scenario_network.node[2].core_layer 	interests[2] 	42889
scalar one_cache_scenario_network.node[2].core_layer 	data[2] 	42889
scalar one_cache_scenario_network.node[2].content_store 	p_hit[2] 	0
scalar one_cache_scenario_network.node[2].content_store 	hits[2] 	0
scalar one_cache_scenario_network.node[2].content_store 	misses[2] 	42889
scalar one_cache_scenario_network.node[2].content_store 	decision_yes[2] 	0
scalar one_cache_scenario_network.node[2].content_store 	decision_no[2] 	42889
scalar one_cache_scenario_network.node[3].core_layer 	interests[3] 	55086
scalar one_cache_scenario_network.node[3].core_layer 	repo_load[3] 	55086
scalar one_cache_scenario_network.node[3].core_layer 	data[3] 	0
scalar one_cache_scenario_network.node[3].content_store 	p_hit[3] 	0
scalar one_cache_scenario_network.node[3].content_store 	hits[3] 	0
scalar one_cache_scenario_network.node[3].content_store 	misses[3] 	55086
scalar one_cache_scenario_network.node[3].content_store 	decision_yes[3] 	0
scalar one_cache_scenario_network.node[3].content_store 	decision_no[3] 	55086
scalar one_cache_scenario_network.node[4].core_layer 	interests[4] 	42889
scalar one_cache_scenario_network.node[4].core_layer 	repo_load[4] 	42889
scalar one_cache_scenario_network.node[4].core_layer 	data[4] 	0
scalar one_cache_scenario_network.node[4].content_store 	p_hit[4] 	0
scalar one_cache_scenario_network.node[4].content_store 	hits[4] 	0
scalar one_cache_scenario_network.node[4].content_store 	misses[4] 	42889
scalar one_cache_scenario_network.node[4].content_store 	decision_yes[4] 	0
scalar one_cache_scenario_network.node[4].content_store 	decision_no[4] 	42889
scalar one_cache_scenario_network.client[0] 	hdistance[0] 	1.0904952445614
scalar one_cache_scenario_network.client[0] 	downloads[0] 	179689
scalar one_cache_scenario_network.client[0] 	avg_time[0] 	0
scalar one_cache_scenario_network.client[0] 	interests_sent[0] 	179689
