version 2
run General-6-20140625-11:30:50-10602
attr D fix0.0001
attr F nrr
attr R lru
attr a 1
attr configname General
attr csize 1e3
attr ctlg 1e5
attr datetime 20140625-11:30:50
attr experiment General
attr inifile omnetpp.ini
attr iterationvars "$net=geant_cost, $rep=1, $priceratiovalue=10, $weights=0.333_0.333_0.334, $lambda=100, $a=1, $ctlg=1e5, $F=nrr, $ttl=1000, $D=fix0.0001, $xi=1, $R=lru, $csize=1e3, $pricebits=0, $mytime=1800"
attr iterationvars2 "$net=geant_cost, $rep=1, $priceratiovalue=10, $weights=0.333_0.333_0.334, $lambda=100, $a=1, $ctlg=1e5, $F=nrr, $ttl=1000, $D=fix0.0001, $xi=1, $R=lru, $csize=1e3, $pricebits=0, $mytime=1800, $repetition=0"
attr lambda 100
attr measurement "$net=geant_cost, $rep=1, $priceratiovalue=10, $weights=0.333_0.333_0.334, $lambda=100, $a=1, $ctlg=1e5, $F=nrr, $ttl=1000, $D=fix0.0001, $xi=1, $R=lru, $csize=1e3, $pricebits=0, $mytime=1800"
attr mytime 1800
attr net geant_cost
attr network networks.${net=geant_cost}_network
attr pricebits 0
attr priceratiovalue 10
attr processid 10602
attr rep 1
attr repetition 0
attr replication #0
attr resultdir results
attr runnumber 6
attr seedset 1
attr ttl 1000
attr weights 0.333_0.333_0.334
attr xi 1

scalar . 	a 	1
scalar . 	csize 	1e3
scalar . 	ctlg 	1e5
scalar . 	lambda 	100
scalar . 	mytime 	1800
scalar . 	pricebits 	0
scalar . 	priceratiovalue 	10
scalar . 	rep 	1
scalar . 	ttl 	1000
scalar . 	xi 	1
scalar geant_cost_network.content_distribution 	repo-0 	22
scalar geant_cost_network.content_distribution 	repo-1 	23
scalar geant_cost_network.content_distribution 	repo-2 	24
scalar geant_cost_network.content_distribution 	client-0 	20
scalar geant_cost_network.content_distribution 	client-1 	10
scalar geant_cost_network.content_distribution 	client-2 	12
scalar geant_cost_network.content_distribution 	client-3 	9
scalar geant_cost_network.content_distribution 	client-4 	5
scalar geant_cost_network.content_distribution 	repo-0_card 	33396
scalar geant_cost_network.content_distribution 	repo-1_card 	33039
scalar geant_cost_network.content_distribution 	repo-2_card 	33565
scalar geant_cost_network.statistics 	repo_popularity[0] 	0.28686251265602
scalar geant_cost_network.statistics 	repo_popularity[1] 	0.2886063426465
scalar geant_cost_network.statistics 	repo_popularity[2] 	0.42453114469748
scalar geant_cost_network.statistics 	stabilization_time 	36060
scalar geant_cost_network.node[7].face$o[4].channel 	price[7] 	0
scalar geant_cost_network.node[7].face$o[4].channel 	represented_price[7] 	0
scalar geant_cost_network.node[8].face$o[3].channel 	price[8] 	0
scalar geant_cost_network.node[8].face$o[3].channel 	represented_price[8] 	0
scalar geant_cost_network.node[21].face$o[5].channel 	price[21] 	0
scalar geant_cost_network.node[21].face$o[5].channel 	represented_price[21] 	0
scalar geant_cost_network.node[22].face$o[1].channel 	price[22] 	0
scalar geant_cost_network.node[22].face$o[1].channel 	represented_price[22] 	0
scalar geant_cost_network.node[23].face$o[1].channel 	price[23] 	1
scalar geant_cost_network.node[23].face$o[1].channel 	represented_price[23] 	1
scalar geant_cost_network.node[24].face$o[1].channel 	price[24] 	10
scalar geant_cost_network.node[24].face$o[1].channel 	represented_price[24] 	10
scalar geant_cost_network.statistics 	p_hit 	0.16514577482042
scalar geant_cost_network.statistics 	interests 	112653.2
scalar geant_cost_network.statistics 	data 	76639.96
scalar geant_cost_network.statistics 	hdistance 	2.6117655811352
scalar geant_cost_network.statistics 	avg_time 	0.004679228019
scalar geant_cost_network.statistics 	downloads 	900197
scalar geant_cost_network.statistics 	total_cost 	1591425
scalar geant_cost_network.statistics 	total_replicas 	100000
scalar geant_cost_network.statistics 	inner_hit 	0.51676688547062
scalar geant_cost_network.statistics 	interests_sent 	900331
scalar geant_cost_network.node[0].core_layer 	interests[0] 	0
scalar geant_cost_network.node[0].core_layer 	data[0] 	0
scalar geant_cost_network.node[0].core_layer 	repo_int[0] 	435005
scalar geant_cost_network.node[0].content_store 	p_hit[0] 	-nan
scalar geant_cost_network.node[0].content_store 	hits[0] 	0
scalar geant_cost_network.node[0].content_store 	misses[0] 	0
scalar geant_cost_network.node[0].content_store 	decision_yes[0] 	0
scalar geant_cost_network.node[0].content_store 	decision_no[0] 	0
scalar geant_cost_network.node[0].content_store 	decision_ratio[0] 	0
scalar geant_cost_network.node[1].core_layer 	interests[1] 	0
scalar geant_cost_network.node[1].core_layer 	data[1] 	0
scalar geant_cost_network.node[1].content_store 	p_hit[1] 	-nan
scalar geant_cost_network.node[1].content_store 	hits[1] 	0
scalar geant_cost_network.node[1].content_store 	misses[1] 	0
scalar geant_cost_network.node[1].content_store 	decision_yes[1] 	0
scalar geant_cost_network.node[1].content_store 	decision_no[1] 	0
scalar geant_cost_network.node[1].content_store 	decision_ratio[1] 	0
scalar geant_cost_network.node[2].core_layer 	interests[2] 	0
scalar geant_cost_network.node[2].core_layer 	data[2] 	0
scalar geant_cost_network.node[2].content_store 	p_hit[2] 	-nan
scalar geant_cost_network.node[2].content_store 	hits[2] 	0
scalar geant_cost_network.node[2].content_store 	misses[2] 	0
scalar geant_cost_network.node[2].content_store 	decision_yes[2] 	0
scalar geant_cost_network.node[2].content_store 	decision_no[2] 	0
scalar geant_cost_network.node[2].content_store 	decision_ratio[2] 	0
scalar geant_cost_network.node[3].core_layer 	interests[3] 	172094
scalar geant_cost_network.node[3].core_layer 	data[3] 	146270
scalar geant_cost_network.node[3].content_store 	p_hit[3] 	0.15005171592269
scalar geant_cost_network.node[3].content_store 	hits[3] 	25823
scalar geant_cost_network.node[3].content_store 	misses[3] 	146271
scalar geant_cost_network.node[3].content_store 	decision_yes[3] 	16
scalar geant_cost_network.node[3].content_store 	decision_no[3] 	146254
scalar geant_cost_network.node[3].content_store 	decision_ratio[3] 	0.00010938675052984
scalar geant_cost_network.node[4].core_layer 	interests[4] 	209989
scalar geant_cost_network.node[4].core_layer 	data[4] 	193628
scalar geant_cost_network.node[4].content_store 	p_hit[4] 	0.077894556381525
scalar geant_cost_network.node[4].content_store 	hits[4] 	16357
scalar geant_cost_network.node[4].content_store 	misses[4] 	193632
scalar geant_cost_network.node[4].content_store 	decision_yes[4] 	24
scalar geant_cost_network.node[4].content_store 	decision_no[4] 	193604
scalar geant_cost_network.node[4].content_store 	decision_ratio[4] 	0.00012394901563823
scalar geant_cost_network.node[5].core_layer 	interests[5] 	186172
scalar geant_cost_network.node[5].core_layer 	data[5] 	121224
scalar geant_cost_network.node[5].content_store 	p_hit[5] 	0.34867756698107
scalar geant_cost_network.node[5].content_store 	hits[5] 	64914
scalar geant_cost_network.node[5].content_store 	misses[5] 	121258
scalar geant_cost_network.node[5].content_store 	decision_yes[5] 	11
scalar geant_cost_network.node[5].content_store 	decision_no[5] 	121213
scalar geant_cost_network.node[5].content_store 	decision_ratio[5] 	9.0741107371478e-05
scalar geant_cost_network.node[6].core_layer 	interests[6] 	69646
scalar geant_cost_network.node[6].core_layer 	data[6] 	61851
scalar geant_cost_network.node[6].content_store 	p_hit[6] 	0.11192315423714
scalar geant_cost_network.node[6].content_store 	hits[6] 	7795
scalar geant_cost_network.node[6].content_store 	misses[6] 	61851
scalar geant_cost_network.node[6].content_store 	decision_yes[6] 	6
scalar geant_cost_network.node[6].content_store 	decision_no[6] 	61845
scalar geant_cost_network.node[6].content_store 	decision_ratio[6] 	9.7007324052966e-05
scalar geant_cost_network.node[7].core_layer 	interests[7] 	223410
scalar geant_cost_network.node[7].core_layer 	data[7] 	209348
scalar geant_cost_network.node[7].content_store 	p_hit[7] 	0.062938095877535
scalar geant_cost_network.node[7].content_store 	hits[7] 	14061
scalar geant_cost_network.node[7].content_store 	misses[7] 	209349
scalar geant_cost_network.node[7].content_store 	decision_yes[7] 	19
scalar geant_cost_network.node[7].content_store 	decision_no[7] 	209329
scalar geant_cost_network.node[7].content_store 	decision_ratio[7] 	9.0757972371363e-05
scalar geant_cost_network.node[8].core_layer 	interests[8] 	227752
scalar geant_cost_network.node[8].core_layer 	data[8] 	211587
scalar geant_cost_network.node[8].content_store 	p_hit[8] 	0.070976325125575
scalar geant_cost_network.node[8].content_store 	hits[8] 	16165
scalar geant_cost_network.node[8].content_store 	misses[8] 	211587
scalar geant_cost_network.node[8].content_store 	decision_yes[8] 	20
scalar geant_cost_network.node[8].content_store 	decision_no[8] 	211567
scalar geant_cost_network.node[8].content_store 	decision_ratio[8] 	9.4523765637775e-05
scalar geant_cost_network.node[9].core_layer 	interests[9] 	343344
scalar geant_cost_network.node[9].core_layer 	data[9] 	264665
scalar geant_cost_network.node[9].content_store 	p_hit[9] 	0.22898900228342
scalar geant_cost_network.node[9].content_store 	hits[9] 	78622
scalar geant_cost_network.node[9].content_store 	misses[9] 	264722
scalar geant_cost_network.node[9].content_store 	decision_yes[9] 	17
scalar geant_cost_network.node[9].content_store 	decision_no[9] 	264648
scalar geant_cost_network.node[9].content_store 	decision_ratio[9] 	6.4232142519789e-05
scalar geant_cost_network.node[10].core_layer 	interests[10] 	188271
scalar geant_cost_network.node[10].core_layer 	data[10] 	120326
scalar geant_cost_network.node[10].content_store 	p_hit[10] 	0.36075125749584
scalar geant_cost_network.node[10].content_store 	hits[10] 	67919
scalar geant_cost_network.node[10].content_store 	misses[10] 	120352
scalar geant_cost_network.node[10].content_store 	decision_yes[10] 	15
scalar geant_cost_network.node[10].content_store 	decision_no[10] 	120311
scalar geant_cost_network.node[10].content_store 	decision_ratio[10] 	0.00012466133670196
scalar geant_cost_network.node[11].core_layer 	interests[11] 	0
scalar geant_cost_network.node[11].core_layer 	data[11] 	0
scalar geant_cost_network.node[11].content_store 	p_hit[11] 	-nan
scalar geant_cost_network.node[11].content_store 	hits[11] 	0
scalar geant_cost_network.node[11].content_store 	misses[11] 	0
scalar geant_cost_network.node[11].content_store 	decision_yes[11] 	0
scalar geant_cost_network.node[11].content_store 	decision_no[11] 	0
scalar geant_cost_network.node[11].content_store 	decision_ratio[11] 	0
scalar geant_cost_network.node[12].core_layer 	interests[12] 	273470
scalar geant_cost_network.node[12].core_layer 	data[12] 	202325
scalar geant_cost_network.node[12].content_store 	p_hit[12] 	0.25987859728672
scalar geant_cost_network.node[12].content_store 	hits[12] 	71069
scalar geant_cost_network.node[12].content_store 	misses[12] 	202401
scalar geant_cost_network.node[12].content_store 	decision_yes[12] 	17
scalar geant_cost_network.node[12].content_store 	decision_no[12] 	202308
scalar geant_cost_network.node[12].content_store 	decision_ratio[12] 	8.402322995181e-05
scalar geant_cost_network.node[13].core_layer 	interests[13] 	5686
scalar geant_cost_network.node[13].core_layer 	data[13] 	4468
scalar geant_cost_network.node[13].content_store 	p_hit[13] 	0.21421034118888
scalar geant_cost_network.node[13].content_store 	hits[13] 	1218
scalar geant_cost_network.node[13].content_store 	misses[13] 	4468
scalar geant_cost_network.node[13].content_store 	decision_yes[13] 	0
scalar geant_cost_network.node[13].content_store 	decision_no[13] 	4468
scalar geant_cost_network.node[13].content_store 	decision_ratio[13] 	0
scalar geant_cost_network.node[14].core_layer 	interests[14] 	49916
scalar geant_cost_network.node[14].core_layer 	data[14] 	38618
scalar geant_cost_network.node[14].content_store 	p_hit[14] 	0.22634025162273
scalar geant_cost_network.node[14].content_store 	hits[14] 	11298
scalar geant_cost_network.node[14].content_store 	misses[14] 	38618
scalar geant_cost_network.node[14].content_store 	decision_yes[14] 	4
scalar geant_cost_network.node[14].content_store 	decision_no[14] 	38614
scalar geant_cost_network.node[14].content_store 	decision_ratio[14] 	0.000103578642084
scalar geant_cost_network.node[15].core_layer 	interests[15] 	0
scalar geant_cost_network.node[15].core_layer 	data[15] 	0
scalar geant_cost_network.node[15].content_store 	p_hit[15] 	-nan
scalar geant_cost_network.node[15].content_store 	hits[15] 	0
scalar geant_cost_network.node[15].content_store 	misses[15] 	0
scalar geant_cost_network.node[15].content_store 	decision_yes[15] 	0
scalar geant_cost_network.node[15].content_store 	decision_no[15] 	0
scalar geant_cost_network.node[15].content_store 	decision_ratio[15] 	0
scalar geant_cost_network.node[16].core_layer 	interests[16] 	0
scalar geant_cost_network.node[16].core_layer 	data[16] 	0
scalar geant_cost_network.node[16].content_store 	p_hit[16] 	-nan
scalar geant_cost_network.node[16].content_store 	hits[16] 	0
scalar geant_cost_network.node[16].content_store 	misses[16] 	0
scalar geant_cost_network.node[16].content_store 	decision_yes[16] 	0
scalar geant_cost_network.node[16].content_store 	decision_no[16] 	0
scalar geant_cost_network.node[16].content_store 	decision_ratio[16] 	0
scalar geant_cost_network.node[17].core_layer 	interests[17] 	0
scalar geant_cost_network.node[17].core_layer 	data[17] 	0
scalar geant_cost_network.node[17].content_store 	p_hit[17] 	-nan
scalar geant_cost_network.node[17].content_store 	hits[17] 	0
scalar geant_cost_network.node[17].content_store 	misses[17] 	0
scalar geant_cost_network.node[17].content_store 	decision_yes[17] 	0
scalar geant_cost_network.node[17].content_store 	decision_no[17] 	0
scalar geant_cost_network.node[17].content_store 	decision_ratio[17] 	0
scalar geant_cost_network.node[18].core_layer 	interests[18] 	93806
scalar geant_cost_network.node[18].core_layer 	data[18] 	79267
scalar geant_cost_network.node[18].content_store 	p_hit[18] 	0.15499008592201
scalar geant_cost_network.node[18].content_store 	hits[18] 	14539
scalar geant_cost_network.node[18].content_store 	misses[18] 	79267
scalar geant_cost_network.node[18].content_store 	decision_yes[18] 	9
scalar geant_cost_network.node[18].content_store 	decision_no[18] 	79258
scalar geant_cost_network.node[18].content_store 	decision_ratio[18] 	0.00011354031311895
scalar geant_cost_network.node[19].core_layer 	interests[19] 	0
scalar geant_cost_network.node[19].core_layer 	data[19] 	0
scalar geant_cost_network.node[19].content_store 	p_hit[19] 	-nan
scalar geant_cost_network.node[19].content_store 	hits[19] 	0
scalar geant_cost_network.node[19].content_store 	misses[19] 	0
scalar geant_cost_network.node[19].content_store 	decision_yes[19] 	0
scalar geant_cost_network.node[19].content_store 	decision_no[19] 	0
scalar geant_cost_network.node[19].content_store 	decision_ratio[19] 	0
scalar geant_cost_network.node[20].core_layer 	interests[20] 	182583
scalar geant_cost_network.node[20].core_layer 	data[20] 	117666
scalar geant_cost_network.node[20].content_store 	p_hit[20] 	0.35542739466434
scalar geant_cost_network.node[20].content_store 	hits[20] 	64895
scalar geant_cost_network.node[20].content_store 	misses[20] 	117688
scalar geant_cost_network.node[20].content_store 	decision_yes[20] 	14
scalar geant_cost_network.node[20].content_store 	decision_no[20] 	117652
scalar geant_cost_network.node[20].content_store 	decision_ratio[20] 	0.0001189808440841
scalar geant_cost_network.node[21].core_layer 	interests[21] 	155186
scalar geant_cost_network.node[21].core_layer 	data[21] 	144756
scalar geant_cost_network.node[21].content_store 	p_hit[21] 	0.067209670975475
scalar geant_cost_network.node[21].content_store 	hits[21] 	10430
scalar geant_cost_network.node[21].content_store 	misses[21] 	144756
scalar geant_cost_network.node[21].content_store 	decision_yes[21] 	14
scalar geant_cost_network.node[21].content_store 	decision_no[21] 	144742
scalar geant_cost_network.node[21].content_store 	decision_ratio[21] 	9.6714471248169e-05
scalar geant_cost_network.node[22].core_layer 	interests[22] 	146384
scalar geant_cost_network.node[22].core_layer 	repo_load[22] 	146384
scalar geant_cost_network.node[22].core_layer 	data[22] 	0
scalar geant_cost_network.node[22].content_store 	p_hit[22] 	0
scalar geant_cost_network.node[22].content_store 	hits[22] 	0
scalar geant_cost_network.node[22].content_store 	misses[22] 	146384
scalar geant_cost_network.node[22].content_store 	decision_yes[22] 	0
scalar geant_cost_network.node[22].content_store 	decision_no[22] 	146384
scalar geant_cost_network.node[22].content_store 	decision_ratio[22] 	0
scalar geant_cost_network.node[23].core_layer 	interests[23] 	143865
scalar geant_cost_network.node[23].core_layer 	repo_load[23] 	143865
scalar geant_cost_network.node[23].core_layer 	data[23] 	0
scalar geant_cost_network.node[23].content_store 	p_hit[23] 	0
scalar geant_cost_network.node[23].content_store 	hits[23] 	0
scalar geant_cost_network.node[23].content_store 	misses[23] 	143865
scalar geant_cost_network.node[23].content_store 	decision_yes[23] 	0
scalar geant_cost_network.node[23].content_store 	decision_no[23] 	143865
scalar geant_cost_network.node[23].content_store 	decision_ratio[23] 	0
scalar geant_cost_network.node[24].core_layer 	interests[24] 	144756
scalar geant_cost_network.node[24].core_layer 	repo_load[24] 	144756
scalar geant_cost_network.node[24].core_layer 	data[24] 	0
scalar geant_cost_network.node[24].content_store 	p_hit[24] 	0
scalar geant_cost_network.node[24].content_store 	hits[24] 	0
scalar geant_cost_network.node[24].content_store 	misses[24] 	144756
scalar geant_cost_network.node[24].content_store 	decision_yes[24] 	0
scalar geant_cost_network.node[24].content_store 	decision_no[24] 	144756
scalar geant_cost_network.node[24].content_store 	decision_ratio[24] 	0
scalar geant_cost_network.client[5] 	hdistance[5] 	2.3797735933023
scalar geant_cost_network.client[5] 	downloads[5] 	179765
scalar geant_cost_network.client[5] 	avg_time[5] 	0.00663207721
scalar geant_cost_network.client[5] 	interests_sent[5] 	179797
scalar geant_cost_network.client[9] 	hdistance[9] 	2.4139316700107
scalar geant_cost_network.client[9] 	downloads[9] 	179921
scalar geant_cost_network.client[9] 	avg_time[9] 	0.003362608849
scalar geant_cost_network.client[9] 	interests_sent[9] 	179943
scalar geant_cost_network.client[10] 	hdistance[10] 	3.067217184142
scalar geant_cost_network.client[10] 	downloads[10] 	180073
scalar geant_cost_network.client[10] 	avg_time[10] 	0.004660419957
scalar geant_cost_network.client[10] 	interests_sent[10] 	180099
scalar geant_cost_network.client[12] 	hdistance[12] 	2.5860107318594
scalar geant_cost_network.client[12] 	downloads[12] 	179652
scalar geant_cost_network.client[12] 	avg_time[12] 	0.004112586193
scalar geant_cost_network.client[12] 	interests_sent[12] 	179684
scalar geant_cost_network.client[20] 	hdistance[20] 	2.6118947263616
scalar geant_cost_network.client[20] 	downloads[20] 	180786
scalar geant_cost_network.client[20] 	avg_time[20] 	0.00462844789
scalar geant_cost_network.client[20] 	interests_sent[20] 	180808
