version 2
run General-38-20140626-17:31:58-16751
attr D fix0.01
attr F spr
attr R lru
attr a 1
attr configname General
attr csize 1e3
attr ctlg 1e5
attr datetime 20140626-17:31:58
attr experiment General
attr inifile omnetpp.ini
attr iterationvars "$net=abilene_cost, $rep=2, $priceratiovalue=10, $weights=0.333_0.333_0.334, $lambda=100, $a=1, $ctlg=1e5, $F=spr, $ttl=1000, $D=fix0.01, $xi=1, $R=lru, $csize=1e3, $pricebits=0, $mytime=1800"
attr iterationvars2 "$net=abilene_cost, $rep=2, $priceratiovalue=10, $weights=0.333_0.333_0.334, $lambda=100, $a=1, $ctlg=1e5, $F=spr, $ttl=1000, $D=fix0.01, $xi=1, $R=lru, $csize=1e3, $pricebits=0, $mytime=1800, $repetition=0"
attr lambda 100
attr measurement "$net=abilene_cost, $rep=2, $priceratiovalue=10, $weights=0.333_0.333_0.334, $lambda=100, $a=1, $ctlg=1e5, $F=spr, $ttl=1000, $D=fix0.01, $xi=1, $R=lru, $csize=1e3, $pricebits=0, $mytime=1800"
attr mytime 1800
attr net abilene_cost
attr network "networks.${net=geant_cost, abilene_cost}_network"
attr pricebits 0
attr priceratiovalue 10
attr processid 16751
attr rep 2
attr repetition 0
attr replication #0
attr resultdir results
attr runnumber 38
attr seedset 2
attr ttl 1000
attr weights 0.333_0.333_0.334
attr xi 1

scalar . 	a 	1
scalar . 	csize 	1e3
scalar . 	ctlg 	1e5
scalar . 	lambda 	100
scalar . 	mytime 	1800
scalar . 	pricebits 	0
scalar . 	priceratiovalue 	10
scalar . 	rep 	2
scalar . 	ttl 	1000
scalar . 	xi 	1
scalar abilene_cost_network.content_distribution 	repo-0 	11
scalar abilene_cost_network.content_distribution 	repo-1 	12
scalar abilene_cost_network.content_distribution 	repo-2 	13
scalar abilene_cost_network.content_distribution 	client-0 	5
scalar abilene_cost_network.content_distribution 	client-1 	0
scalar abilene_cost_network.content_distribution 	client-2 	9
scalar abilene_cost_network.content_distribution 	repo-0_card 	33329
scalar abilene_cost_network.content_distribution 	repo-1_card 	33051
scalar abilene_cost_network.content_distribution 	repo-2_card 	33620
scalar abilene_cost_network.statistics 	repo_popularity[0] 	0.40477944494875
scalar abilene_cost_network.statistics 	repo_popularity[1] 	0.29142457969466
scalar abilene_cost_network.statistics 	repo_popularity[2] 	0.30379597535658
scalar abilene_cost_network.statistics 	stabilization_time 	485.6
scalar abilene_cost_network.node[1].face$o[4].channel 	price[1] 	0
scalar abilene_cost_network.node[1].face$o[4].channel 	represented_price[1] 	0
scalar abilene_cost_network.node[7].face$o[4].channel 	price[7] 	0
scalar abilene_cost_network.node[7].face$o[4].channel 	represented_price[7] 	0
scalar abilene_cost_network.node[10].face$o[4].channel 	price[10] 	0
scalar abilene_cost_network.node[10].face$o[4].channel 	represented_price[10] 	0
scalar abilene_cost_network.node[11].face$o[1].channel 	price[11] 	0
scalar abilene_cost_network.node[11].face$o[1].channel 	represented_price[11] 	0
scalar abilene_cost_network.node[12].face$o[1].channel 	price[12] 	1
scalar abilene_cost_network.node[12].face$o[1].channel 	represented_price[12] 	1
scalar abilene_cost_network.node[13].face$o[1].channel 	price[13] 	10
scalar abilene_cost_network.node[13].face$o[1].channel 	represented_price[13] 	10
scalar abilene_cost_network.statistics 	p_hit 	0.17155813380833
scalar abilene_cost_network.statistics 	interests 	111678.92857143
scalar abilene_cost_network.statistics 	data 	73062.571428571
scalar abilene_cost_network.statistics 	hdistance 	2.396638703583
scalar abilene_cost_network.statistics 	avg_time 	0.009094841979
scalar abilene_cost_network.statistics 	downloads 	540568
scalar abilene_cost_network.statistics 	total_cost 	1012449
scalar abilene_cost_network.statistics 	total_replicas 	100000
scalar abilene_cost_network.statistics 	inner_hit 	0.49620029302511
scalar abilene_cost_network.statistics 	interests_sent 	540626
scalar abilene_cost_network.node[0].core_layer 	interests[0] 	180411
scalar abilene_cost_network.node[0].core_layer 	data[0] 	110115
scalar abilene_cost_network.node[0].core_layer 	repo_int[0] 	272338
scalar abilene_cost_network.node[0].content_store 	p_hit[0] 	0.38949398872574
scalar abilene_cost_network.node[0].content_store 	hits[0] 	70269
scalar abilene_cost_network.node[0].content_store 	misses[0] 	110142
scalar abilene_cost_network.node[0].content_store 	decision_yes[0] 	1113
scalar abilene_cost_network.node[0].content_store 	decision_no[0] 	109002
scalar abilene_cost_network.node[0].content_store 	decision_ratio[0] 	0.010107614766381
scalar abilene_cost_network.node[1].core_layer 	interests[1] 	169905
scalar abilene_cost_network.node[1].core_layer 	data[1] 	158820
scalar abilene_cost_network.node[1].content_store 	p_hit[1] 	0.065236455666402
scalar abilene_cost_network.node[1].content_store 	hits[1] 	11084
scalar abilene_cost_network.node[1].content_store 	misses[1] 	158821
scalar abilene_cost_network.node[1].content_store 	decision_yes[1] 	1561
scalar abilene_cost_network.node[1].content_store 	decision_no[1] 	157259
scalar abilene_cost_network.node[1].content_store 	decision_ratio[1] 	0.0098287369348949
scalar abilene_cost_network.node[2].core_layer 	interests[2] 	98550
scalar abilene_cost_network.node[2].core_layer 	data[2] 	94333
scalar abilene_cost_network.node[2].content_store 	p_hit[2] 	0.042780314561136
scalar abilene_cost_network.node[2].content_store 	hits[2] 	4216
scalar abilene_cost_network.node[2].content_store 	misses[2] 	94334
scalar abilene_cost_network.node[2].content_store 	decision_yes[2] 	925
scalar abilene_cost_network.node[2].content_store 	decision_no[2] 	93408
scalar abilene_cost_network.node[2].content_store 	decision_ratio[2] 	0.0098056883593228
scalar abilene_cost_network.node[3].core_layer 	interests[3] 	98832
scalar abilene_cost_network.node[3].core_layer 	data[3] 	94680
scalar abilene_cost_network.node[3].content_store 	p_hit[3] 	0.042010684798446
scalar abilene_cost_network.node[3].content_store 	hits[3] 	4152
scalar abilene_cost_network.node[3].content_store 	misses[3] 	94680
scalar abilene_cost_network.node[3].content_store 	decision_yes[3] 	935
scalar abilene_cost_network.node[3].content_store 	decision_no[3] 	93745
scalar abilene_cost_network.node[3].content_store 	decision_ratio[3] 	0.0098753696662442
scalar abilene_cost_network.node[4].core_layer 	interests[4] 	71092
scalar abilene_cost_network.node[4].core_layer 	data[4] 	65514
scalar abilene_cost_network.node[4].content_store 	p_hit[4] 	0.078461711584988
scalar abilene_cost_network.node[4].content_store 	hits[4] 	5578
scalar abilene_cost_network.node[4].content_store 	misses[4] 	65514
scalar abilene_cost_network.node[4].content_store 	decision_yes[4] 	623
scalar abilene_cost_network.node[4].content_store 	decision_no[4] 	64891
scalar abilene_cost_network.node[4].content_store 	decision_ratio[4] 	0.009509417834356
scalar abilene_cost_network.node[5].core_layer 	interests[5] 	179822
scalar abilene_cost_network.node[5].core_layer 	data[5] 	109361
scalar abilene_cost_network.node[5].content_store 	p_hit[5] 	0.39173738474714
scalar abilene_cost_network.node[5].content_store 	hits[5] 	70443
scalar abilene_cost_network.node[5].content_store 	misses[5] 	109379
scalar abilene_cost_network.node[5].content_store 	decision_yes[5] 	1116
scalar abilene_cost_network.node[5].content_store 	decision_no[5] 	108245
scalar abilene_cost_network.node[5].content_store 	decision_ratio[5] 	0.01020473477748
scalar abilene_cost_network.node[6].core_layer 	interests[6] 	38269
scalar abilene_cost_network.node[6].core_layer 	data[6] 	33294
scalar abilene_cost_network.node[6].content_store 	p_hit[6] 	0.13000078392433
scalar abilene_cost_network.node[6].content_store 	hits[6] 	4975
scalar abilene_cost_network.node[6].content_store 	misses[6] 	33294
scalar abilene_cost_network.node[6].content_store 	decision_yes[6] 	313
scalar abilene_cost_network.node[6].content_store 	decision_no[6] 	32981
scalar abilene_cost_network.node[6].content_store 	decision_ratio[6] 	0.0094010932900823
scalar abilene_cost_network.node[7].core_layer 	interests[7] 	97941
scalar abilene_cost_network.node[7].core_layer 	data[7] 	88049
scalar abilene_cost_network.node[7].content_store 	p_hit[7] 	0.10099958138063
scalar abilene_cost_network.node[7].content_store 	hits[7] 	9892
scalar abilene_cost_network.node[7].content_store 	misses[7] 	88049
scalar abilene_cost_network.node[7].content_store 	decision_yes[7] 	891
scalar abilene_cost_network.node[7].content_store 	decision_no[7] 	87158
scalar abilene_cost_network.node[7].content_store 	decision_ratio[7] 	0.010119365353383
scalar abilene_cost_network.node[8].core_layer 	interests[8] 	38099
scalar abilene_cost_network.node[8].core_layer 	data[8] 	32496
scalar abilene_cost_network.node[8].content_store 	p_hit[8] 	0.14706422740754
scalar abilene_cost_network.node[8].content_store 	hits[8] 	5603
scalar abilene_cost_network.node[8].content_store 	misses[8] 	32496
scalar abilene_cost_network.node[8].content_store 	decision_yes[8] 	356
scalar abilene_cost_network.node[8].content_store 	decision_no[8] 	32140
scalar abilene_cost_network.node[8].content_store 	decision_ratio[8] 	0.010955194485475
scalar abilene_cost_network.node[9].core_layer 	interests[9] 	180393
scalar abilene_cost_network.node[9].core_layer 	data[9] 	109800
scalar abilene_cost_network.node[9].content_store 	p_hit[9] 	0.3912568669516
scalar abilene_cost_network.node[9].content_store 	hits[9] 	70580
scalar abilene_cost_network.node[9].content_store 	misses[9] 	109813
scalar abilene_cost_network.node[9].content_store 	decision_yes[9] 	1094
scalar abilene_cost_network.node[9].content_store 	decision_no[9] 	108706
scalar abilene_cost_network.node[9].content_store 	decision_ratio[9] 	0.0099635701275046
scalar abilene_cost_network.node[10].core_layer 	interests[10] 	137853
scalar abilene_cost_network.node[10].core_layer 	data[10] 	126414
scalar abilene_cost_network.node[10].content_store 	p_hit[10] 	0.082986949866887
scalar abilene_cost_network.node[10].content_store 	hits[10] 	11440
scalar abilene_cost_network.node[10].content_store 	misses[10] 	126413
scalar abilene_cost_network.node[10].content_store 	decision_yes[10] 	1267
scalar abilene_cost_network.node[10].content_store 	decision_no[10] 	125147
scalar abilene_cost_network.node[10].content_store 	decision_ratio[10] 	0.010022624076447
scalar abilene_cost_network.node[11].core_layer 	interests[11] 	91849
scalar abilene_cost_network.node[11].core_layer 	repo_load[11] 	91849
scalar abilene_cost_network.node[11].core_layer 	data[11] 	0
scalar abilene_cost_network.node[11].content_store 	p_hit[11] 	0
scalar abilene_cost_network.node[11].content_store 	hits[11] 	0
scalar abilene_cost_network.node[11].content_store 	misses[11] 	91849
scalar abilene_cost_network.node[11].content_store 	decision_yes[11] 	0
scalar abilene_cost_network.node[11].content_store 	decision_no[11] 	91849
scalar abilene_cost_network.node[11].content_store 	decision_ratio[11] 	0
scalar abilene_cost_network.node[12].core_layer 	interests[12] 	88049
scalar abilene_cost_network.node[12].core_layer 	repo_load[12] 	88049
scalar abilene_cost_network.node[12].core_layer 	data[12] 	0
scalar abilene_cost_network.node[12].content_store 	p_hit[12] 	0
scalar abilene_cost_network.node[12].content_store 	hits[12] 	0
scalar abilene_cost_network.node[12].content_store 	misses[12] 	88049
scalar abilene_cost_network.node[12].content_store 	decision_yes[12] 	0
scalar abilene_cost_network.node[12].content_store 	decision_no[12] 	88049
scalar abilene_cost_network.node[12].content_store 	decision_ratio[12] 	0
scalar abilene_cost_network.node[13].core_layer 	interests[13] 	92440
scalar abilene_cost_network.node[13].core_layer 	repo_load[13] 	92440
scalar abilene_cost_network.node[13].core_layer 	data[13] 	0
scalar abilene_cost_network.node[13].content_store 	p_hit[13] 	0
scalar abilene_cost_network.node[13].content_store 	hits[13] 	0
scalar abilene_cost_network.node[13].content_store 	misses[13] 	92440
scalar abilene_cost_network.node[13].content_store 	decision_yes[13] 	0
scalar abilene_cost_network.node[13].content_store 	decision_no[13] 	92440
scalar abilene_cost_network.node[13].content_store 	decision_ratio[13] 	0
scalar abilene_cost_network.client[0] 	hdistance[0] 	2.2055614688664
scalar abilene_cost_network.client[0] 	downloads[0] 	180384
scalar abilene_cost_network.client[0] 	avg_time[0] 	0.008935278692
scalar abilene_cost_network.client[0] 	interests_sent[0] 	180411
scalar abilene_cost_network.client[5] 	hdistance[5] 	2.9807123312051
scalar abilene_cost_network.client[5] 	downloads[5] 	179804
scalar abilene_cost_network.client[5] 	avg_time[5] 	0.010622450977
scalar abilene_cost_network.client[5] 	interests_sent[5] 	179822
scalar abilene_cost_network.client[9] 	hdistance[9] 	2.0036423106775
scalar abilene_cost_network.client[9] 	downloads[9] 	180380
scalar abilene_cost_network.client[9] 	avg_time[9] 	0.007726796268
scalar abilene_cost_network.client[9] 	interests_sent[9] 	180393
