version 2
run General-54-20140627-19:50:46-22883
attr D fix0.01
attr F spr
attr R lru
attr a 1
attr configname General
attr csize 1e3
attr ctlg 1e5
attr datetime 20140627-19:50:46
attr experiment General
attr inifile omnetpp.ini
attr iterationvars "$net=abilene_cost, $rep=16, $priceratiovalue=10, $weights=0.333_0.333_0.334, $lambda=100, $a=1, $ctlg=1e5, $F=spr, $ttl=1000, $D=fix0.01, $xi=1, $R=lru, $csize=1e3, $pricebits=0, $window=60, $variance=0.05, $mytime=1800"
attr iterationvars2 "$net=abilene_cost, $rep=16, $priceratiovalue=10, $weights=0.333_0.333_0.334, $lambda=100, $a=1, $ctlg=1e5, $F=spr, $ttl=1000, $D=fix0.01, $xi=1, $R=lru, $csize=1e3, $pricebits=0, $window=60, $variance=0.05, $mytime=1800, $repetition=0"
attr lambda 100
attr measurement "$net=abilene_cost, $rep=16, $priceratiovalue=10, $weights=0.333_0.333_0.334, $lambda=100, $a=1, $ctlg=1e5, $F=spr, $ttl=1000, $D=fix0.01, $xi=1, $R=lru, $csize=1e3, $pricebits=0, $window=60, $variance=0.05, $mytime=1800"
attr mytime 1800
attr net abilene_cost
attr network "networks.${net=geant_cost, abilene_cost}_network"
attr pricebits 0
attr priceratiovalue 10
attr processid 22883
attr rep 16
attr repetition 0
attr replication #0
attr resultdir results
attr runnumber 54
attr seedset 16
attr ttl 1000
attr variance 0.05
attr weights 0.333_0.333_0.334
attr window 60
attr xi 1

scalar . 	a 	1
scalar . 	csize 	1e3
scalar . 	ctlg 	1e5
scalar . 	lambda 	100
scalar . 	mytime 	1800
scalar . 	pricebits 	0
scalar . 	priceratiovalue 	10
scalar . 	rep 	16
scalar . 	ttl 	1000
scalar . 	variance 	0.05
scalar . 	window 	60
scalar . 	xi 	1
scalar abilene_cost_network.content_distribution 	repo-0 	11
scalar abilene_cost_network.content_distribution 	repo-1 	12
scalar abilene_cost_network.content_distribution 	repo-2 	13
scalar abilene_cost_network.content_distribution 	client-0 	5
scalar abilene_cost_network.content_distribution 	client-1 	0
scalar abilene_cost_network.content_distribution 	client-2 	9
scalar abilene_cost_network.content_distribution 	repo-0_card 	33302
scalar abilene_cost_network.content_distribution 	repo-1_card 	33208
scalar abilene_cost_network.content_distribution 	repo-2_card 	33490
scalar abilene_cost_network.statistics 	repo_popularity[0] 	0.38028263519115
scalar abilene_cost_network.statistics 	repo_popularity[1] 	0.2853641311191
scalar abilene_cost_network.statistics 	repo_popularity[2] 	0.33435323368975
scalar abilene_cost_network.statistics 	stabilization_time 	460.4
scalar abilene_cost_network.node[1].face$o[4].channel 	price[1] 	0
scalar abilene_cost_network.node[1].face$o[4].channel 	represented_price[1] 	0
scalar abilene_cost_network.node[7].face$o[4].channel 	price[7] 	0
scalar abilene_cost_network.node[7].face$o[4].channel 	represented_price[7] 	0
scalar abilene_cost_network.node[10].face$o[4].channel 	price[10] 	0
scalar abilene_cost_network.node[10].face$o[4].channel 	represented_price[10] 	0
scalar abilene_cost_network.node[11].face$o[1].channel 	price[11] 	0
scalar abilene_cost_network.node[11].face$o[1].channel 	represented_price[11] 	0
scalar abilene_cost_network.node[12].face$o[1].channel 	price[12] 	1
scalar abilene_cost_network.node[12].face$o[1].channel 	represented_price[12] 	1
scalar abilene_cost_network.node[13].face$o[1].channel 	price[13] 	10
scalar abilene_cost_network.node[13].face$o[1].channel 	represented_price[13] 	10
scalar abilene_cost_network.statistics 	p_hit 	0.17107132726352
scalar abilene_cost_network.statistics 	interests 	111551.21428571
scalar abilene_cost_network.statistics 	data 	72949.5
scalar abilene_cost_network.statistics 	hdistance 	2.3962565352837
scalar abilene_cost_network.statistics 	avg_time 	0.009041397238
scalar abilene_cost_network.statistics 	downloads 	540350
scalar abilene_cost_network.statistics 	total_cost 	1022628
scalar abilene_cost_network.statistics 	total_replicas 	100000
scalar abilene_cost_network.statistics 	inner_hit 	0.49442953641159
scalar abilene_cost_network.statistics 	interests_sent 	540425
scalar abilene_cost_network.node[0].core_layer 	interests[0] 	179767
scalar abilene_cost_network.node[0].core_layer 	data[0] 	109256
scalar abilene_cost_network.node[0].core_layer 	repo_int[0] 	273185
scalar abilene_cost_network.node[0].content_store 	p_hit[0] 	0.39209643594208
scalar abilene_cost_network.node[0].content_store 	hits[0] 	70486
scalar abilene_cost_network.node[0].content_store 	misses[0] 	109281
scalar abilene_cost_network.node[0].content_store 	decision_yes[0] 	1111
scalar abilene_cost_network.node[0].content_store 	decision_no[0] 	108145
scalar abilene_cost_network.node[0].content_store 	decision_ratio[0] 	0.010168777916087
scalar abilene_cost_network.node[1].core_layer 	interests[1] 	170352
scalar abilene_cost_network.node[1].core_layer 	data[1] 	159003
scalar abilene_cost_network.node[1].content_store 	p_hit[1] 	0.066626749319057
scalar abilene_cost_network.node[1].content_store 	hits[1] 	11350
scalar abilene_cost_network.node[1].content_store 	misses[1] 	159002
scalar abilene_cost_network.node[1].content_store 	decision_yes[1] 	1613
scalar abilene_cost_network.node[1].content_store 	decision_no[1] 	157390
scalar abilene_cost_network.node[1].content_store 	decision_ratio[1] 	0.010144462683094
scalar abilene_cost_network.node[2].core_layer 	interests[2] 	98110
scalar abilene_cost_network.node[2].core_layer 	data[2] 	94466
scalar abilene_cost_network.node[2].content_store 	p_hit[2] 	0.037141983487922
scalar abilene_cost_network.node[2].content_store 	hits[2] 	3644
scalar abilene_cost_network.node[2].content_store 	misses[2] 	94466
scalar abilene_cost_network.node[2].content_store 	decision_yes[2] 	936
scalar abilene_cost_network.node[2].content_store 	decision_no[2] 	93530
scalar abilene_cost_network.node[2].content_store 	decision_ratio[2] 	0.0099083268054115
scalar abilene_cost_network.node[3].core_layer 	interests[3] 	98899
scalar abilene_cost_network.node[3].core_layer 	data[3] 	94830
scalar abilene_cost_network.node[3].content_store 	p_hit[3] 	0.041142984256666
scalar abilene_cost_network.node[3].content_store 	hits[3] 	4069
scalar abilene_cost_network.node[3].content_store 	misses[3] 	94830
scalar abilene_cost_network.node[3].content_store 	decision_yes[3] 	1005
scalar abilene_cost_network.node[3].content_store 	decision_no[3] 	93825
scalar abilene_cost_network.node[3].content_store 	decision_ratio[3] 	0.010597912053148
scalar abilene_cost_network.node[4].core_layer 	interests[4] 	73304
scalar abilene_cost_network.node[4].core_layer 	data[4] 	66248
scalar abilene_cost_network.node[4].content_store 	p_hit[4] 	0.096256684491979
scalar abilene_cost_network.node[4].content_store 	hits[4] 	7056
scalar abilene_cost_network.node[4].content_store 	misses[4] 	66248
scalar abilene_cost_network.node[4].content_store 	decision_yes[4] 	656
scalar abilene_cost_network.node[4].content_store 	decision_no[4] 	65592
scalar abilene_cost_network.node[4].content_store 	decision_ratio[4] 	0.0099021857263615
scalar abilene_cost_network.node[5].core_layer 	interests[5] 	179865
scalar abilene_cost_network.node[5].core_layer 	data[5] 	109489
scalar abilene_cost_network.node[5].content_store 	p_hit[5] 	0.39113779779279
scalar abilene_cost_network.node[5].content_store 	hits[5] 	70352
scalar abilene_cost_network.node[5].content_store 	misses[5] 	109513
scalar abilene_cost_network.node[5].content_store 	decision_yes[5] 	1055
scalar abilene_cost_network.node[5].content_store 	decision_no[5] 	108434
scalar abilene_cost_network.node[5].content_store 	decision_ratio[5] 	0.0096356711633132
scalar abilene_cost_network.node[6].core_layer 	interests[6] 	36186
scalar abilene_cost_network.node[6].core_layer 	data[6] 	31318
scalar abilene_cost_network.node[6].content_store 	p_hit[6] 	0.13452716520201
scalar abilene_cost_network.node[6].content_store 	hits[6] 	4868
scalar abilene_cost_network.node[6].content_store 	misses[6] 	31318
scalar abilene_cost_network.node[6].content_store 	decision_yes[6] 	317
scalar abilene_cost_network.node[6].content_store 	decision_no[6] 	31001
scalar abilene_cost_network.node[6].content_store 	decision_ratio[6] 	0.010121974583307
scalar abilene_cost_network.node[7].core_layer 	interests[7] 	94399
scalar abilene_cost_network.node[7].core_layer 	data[7] 	86368
scalar abilene_cost_network.node[7].content_store 	p_hit[7] 	0.085075053761163
scalar abilene_cost_network.node[7].content_store 	hits[7] 	8031
scalar abilene_cost_network.node[7].content_store 	misses[7] 	86368
scalar abilene_cost_network.node[7].content_store 	decision_yes[7] 	863
scalar abilene_cost_network.node[7].content_store 	decision_no[7] 	85505
scalar abilene_cost_network.node[7].content_store 	decision_ratio[7] 	0.0099921267135976
scalar abilene_cost_network.node[8].core_layer 	interests[8] 	35928
scalar abilene_cost_network.node[8].core_layer 	data[8] 	31793
scalar abilene_cost_network.node[8].content_store 	p_hit[8] 	0.11509129369851
scalar abilene_cost_network.node[8].content_store 	hits[8] 	4135
scalar abilene_cost_network.node[8].content_store 	misses[8] 	31793
scalar abilene_cost_network.node[8].content_store 	decision_yes[8] 	346
scalar abilene_cost_network.node[8].content_store 	decision_no[8] 	31447
scalar abilene_cost_network.node[8].content_store 	decision_ratio[8] 	0.010882898751297
scalar abilene_cost_network.node[9].core_layer 	interests[9] 	180793
scalar abilene_cost_network.node[9].core_layer 	data[9] 	109952
scalar abilene_cost_network.node[9].content_store 	p_hit[9] 	0.39169104998534
scalar abilene_cost_network.node[9].content_store 	hits[9] 	70815
scalar abilene_cost_network.node[9].content_store 	misses[9] 	109978
scalar abilene_cost_network.node[9].content_store 	decision_yes[9] 	1109
scalar abilene_cost_network.node[9].content_store 	decision_no[9] 	108843
scalar abilene_cost_network.node[9].content_store 	decision_ratio[9] 	0.010086219441211
scalar abilene_cost_network.node[10].core_layer 	interests[10] 	140929
scalar abilene_cost_network.node[10].core_layer 	data[10] 	128570
scalar abilene_cost_network.node[10].content_store 	p_hit[10] 	0.087696641571288
scalar abilene_cost_network.node[10].content_store 	hits[10] 	12359
scalar abilene_cost_network.node[10].content_store 	misses[10] 	128570
scalar abilene_cost_network.node[10].content_store 	decision_yes[10] 	1371
scalar abilene_cost_network.node[10].content_store 	decision_no[10] 	127199
scalar abilene_cost_network.node[10].content_store 	decision_ratio[10] 	0.010663451816131
scalar abilene_cost_network.node[11].core_layer 	interests[11] 	93191
scalar abilene_cost_network.node[11].core_layer 	repo_load[11] 	93191
scalar abilene_cost_network.node[11].core_layer 	data[11] 	0
scalar abilene_cost_network.node[11].content_store 	p_hit[11] 	0
scalar abilene_cost_network.node[11].content_store 	hits[11] 	0
scalar abilene_cost_network.node[11].content_store 	misses[11] 	93191
scalar abilene_cost_network.node[11].content_store 	decision_yes[11] 	0
scalar abilene_cost_network.node[11].content_store 	decision_no[11] 	93191
scalar abilene_cost_network.node[11].content_store 	decision_ratio[11] 	0
scalar abilene_cost_network.node[12].core_layer 	interests[12] 	86368
scalar abilene_cost_network.node[12].core_layer 	repo_load[12] 	86368
scalar abilene_cost_network.node[12].core_layer 	data[12] 	0
scalar abilene_cost_network.node[12].content_store 	p_hit[12] 	0
scalar abilene_cost_network.node[12].content_store 	hits[12] 	0
scalar abilene_cost_network.node[12].content_store 	misses[12] 	86368
scalar abilene_cost_network.node[12].content_store 	decision_yes[12] 	0
scalar abilene_cost_network.node[12].content_store 	decision_no[12] 	86368
scalar abilene_cost_network.node[12].content_store 	decision_ratio[12] 	0
scalar abilene_cost_network.node[13].core_layer 	interests[13] 	93626
scalar abilene_cost_network.node[13].core_layer 	repo_load[13] 	93626
scalar abilene_cost_network.node[13].core_layer 	data[13] 	0
scalar abilene_cost_network.node[13].content_store 	p_hit[13] 	0
scalar abilene_cost_network.node[13].content_store 	hits[13] 	0
scalar abilene_cost_network.node[13].content_store 	misses[13] 	93626
scalar abilene_cost_network.node[13].content_store 	decision_yes[13] 	0
scalar abilene_cost_network.node[13].content_store 	decision_no[13] 	93626
scalar abilene_cost_network.node[13].content_store 	decision_ratio[13] 	0
scalar abilene_cost_network.client[0] 	hdistance[0] 	2.1973217166828
scalar abilene_cost_network.client[0] 	downloads[0] 	179742
scalar abilene_cost_network.client[0] 	avg_time[0] 	0.008820821384
scalar abilene_cost_network.client[0] 	interests_sent[0] 	179767
scalar abilene_cost_network.client[5] 	hdistance[5] 	2.9860265456709
scalar abilene_cost_network.client[5] 	downloads[5] 	179841
scalar abilene_cost_network.client[5] 	avg_time[5] 	0.010710566164
scalar abilene_cost_network.client[5] 	interests_sent[5] 	179865
scalar abilene_cost_network.client[9] 	hdistance[9] 	2.0054213434974
scalar abilene_cost_network.client[9] 	downloads[9] 	180767
scalar abilene_cost_network.client[9] 	avg_time[9] 	0.007592804167
scalar abilene_cost_network.client[9] 	interests_sent[9] 	180793
