version 2
run General-46-20140626-17:37:22-16768
attr D fix0.01
attr F spr
attr R lru
attr a 1
attr configname General
attr csize 1e3
attr ctlg 1e5
attr datetime 20140626-17:37:22
attr experiment General
attr inifile omnetpp.ini
attr iterationvars "$net=abilene_cost, $rep=3, $priceratiovalue=10, $weights=0.333_0.333_0.334, $lambda=100, $a=1, $ctlg=1e5, $F=spr, $ttl=1000, $D=fix0.01, $xi=1, $R=lru, $csize=1e3, $pricebits=0, $mytime=1800"
attr iterationvars2 "$net=abilene_cost, $rep=3, $priceratiovalue=10, $weights=0.333_0.333_0.334, $lambda=100, $a=1, $ctlg=1e5, $F=spr, $ttl=1000, $D=fix0.01, $xi=1, $R=lru, $csize=1e3, $pricebits=0, $mytime=1800, $repetition=0"
attr lambda 100
attr measurement "$net=abilene_cost, $rep=3, $priceratiovalue=10, $weights=0.333_0.333_0.334, $lambda=100, $a=1, $ctlg=1e5, $F=spr, $ttl=1000, $D=fix0.01, $xi=1, $R=lru, $csize=1e3, $pricebits=0, $mytime=1800"
attr mytime 1800
attr net abilene_cost
attr network "networks.${net=geant_cost, abilene_cost}_network"
attr pricebits 0
attr priceratiovalue 10
attr processid 16768
attr rep 3
attr repetition 0
attr replication #0
attr resultdir results
attr runnumber 46
attr seedset 3
attr ttl 1000
attr weights 0.333_0.333_0.334
attr xi 1

scalar . 	a 	1
scalar . 	csize 	1e3
scalar . 	ctlg 	1e5
scalar . 	lambda 	100
scalar . 	mytime 	1800
scalar . 	pricebits 	0
scalar . 	priceratiovalue 	10
scalar . 	rep 	3
scalar . 	ttl 	1000
scalar . 	xi 	1
scalar abilene_cost_network.content_distribution 	repo-0 	11
scalar abilene_cost_network.content_distribution 	repo-1 	12
scalar abilene_cost_network.content_distribution 	repo-2 	13
scalar abilene_cost_network.content_distribution 	client-0 	5
scalar abilene_cost_network.content_distribution 	client-1 	0
scalar abilene_cost_network.content_distribution 	client-2 	9
scalar abilene_cost_network.content_distribution 	repo-0_card 	33496
scalar abilene_cost_network.content_distribution 	repo-1_card 	33170
scalar abilene_cost_network.content_distribution 	repo-2_card 	33334
scalar abilene_cost_network.statistics 	repo_popularity[0] 	0.34985511604573
scalar abilene_cost_network.statistics 	repo_popularity[1] 	0.30142619076767
scalar abilene_cost_network.statistics 	repo_popularity[2] 	0.3487186931866
scalar abilene_cost_network.statistics 	stabilization_time 	678.2
scalar abilene_cost_network.node[1].face$o[4].channel 	price[1] 	0
scalar abilene_cost_network.node[1].face$o[4].channel 	represented_price[1] 	0
scalar abilene_cost_network.node[7].face$o[4].channel 	price[7] 	0
scalar abilene_cost_network.node[7].face$o[4].channel 	represented_price[7] 	0
scalar abilene_cost_network.node[10].face$o[4].channel 	price[10] 	0
scalar abilene_cost_network.node[10].face$o[4].channel 	represented_price[10] 	0
scalar abilene_cost_network.node[11].face$o[1].channel 	price[11] 	0
scalar abilene_cost_network.node[11].face$o[1].channel 	represented_price[11] 	0
scalar abilene_cost_network.node[12].face$o[1].channel 	price[12] 	1
scalar abilene_cost_network.node[12].face$o[1].channel 	represented_price[12] 	1
scalar abilene_cost_network.node[13].face$o[1].channel 	price[13] 	10
scalar abilene_cost_network.node[13].face$o[1].channel 	represented_price[13] 	10
scalar abilene_cost_network.statistics 	p_hit 	0.17203945806746
scalar abilene_cost_network.statistics 	interests 	111337
scalar abilene_cost_network.statistics 	data 	72816.571428571
scalar abilene_cost_network.statistics 	hdistance 	2.3939628151887
scalar abilene_cost_network.statistics 	avg_time 	0.009066244667
scalar abilene_cost_network.statistics 	downloads 	539224
scalar abilene_cost_network.statistics 	total_cost 	991644
scalar abilene_cost_network.statistics 	total_replicas 	100000
scalar abilene_cost_network.statistics 	inner_hit 	0.49731280506802
scalar abilene_cost_network.statistics 	interests_sent 	539286
scalar abilene_cost_network.node[0].core_layer 	interests[0] 	179725
scalar abilene_cost_network.node[0].core_layer 	data[0] 	109279
scalar abilene_cost_network.node[0].core_layer 	repo_int[0] 	271061
scalar abilene_cost_network.node[0].content_store 	p_hit[0] 	0.39187091389623
scalar abilene_cost_network.node[0].content_store 	hits[0] 	70429
scalar abilene_cost_network.node[0].content_store 	misses[0] 	109296
scalar abilene_cost_network.node[0].content_store 	decision_yes[0] 	1102
scalar abilene_cost_network.node[0].content_store 	decision_no[0] 	108177
scalar abilene_cost_network.node[0].content_store 	decision_ratio[0] 	0.010084279687772
scalar abilene_cost_network.node[1].core_layer 	interests[1] 	166833
scalar abilene_cost_network.node[1].core_layer 	data[1] 	156464
scalar abilene_cost_network.node[1].content_store 	p_hit[1] 	0.062157966349583
scalar abilene_cost_network.node[1].content_store 	hits[1] 	10370
scalar abilene_cost_network.node[1].content_store 	misses[1] 	156463
scalar abilene_cost_network.node[1].content_store 	decision_yes[1] 	1608
scalar abilene_cost_network.node[1].content_store 	decision_no[1] 	154856
scalar abilene_cost_network.node[1].content_store 	decision_ratio[1] 	0.010277124450353
scalar abilene_cost_network.node[2].core_layer 	interests[2] 	97989
scalar abilene_cost_network.node[2].core_layer 	data[2] 	94586
scalar abilene_cost_network.node[2].content_store 	p_hit[2] 	0.034718182653155
scalar abilene_cost_network.node[2].content_store 	hits[2] 	3402
scalar abilene_cost_network.node[2].content_store 	misses[2] 	94587
scalar abilene_cost_network.node[2].content_store 	decision_yes[2] 	993
scalar abilene_cost_network.node[2].content_store 	decision_no[2] 	93593
scalar abilene_cost_network.node[2].content_store 	decision_ratio[2] 	0.01049838242446
scalar abilene_cost_network.node[3].core_layer 	interests[3] 	99134
scalar abilene_cost_network.node[3].core_layer 	data[3] 	95292
scalar abilene_cost_network.node[3].content_store 	p_hit[3] 	0.038735448988238
scalar abilene_cost_network.node[3].content_store 	hits[3] 	3840
scalar abilene_cost_network.node[3].content_store 	misses[3] 	95294
scalar abilene_cost_network.node[3].content_store 	decision_yes[3] 	987
scalar abilene_cost_network.node[3].content_store 	decision_no[3] 	94305
scalar abilene_cost_network.node[3].content_store 	decision_ratio[3] 	0.010357637577131
scalar abilene_cost_network.node[4].core_layer 	interests[4] 	73317
scalar abilene_cost_network.node[4].core_layer 	data[4] 	66153
scalar abilene_cost_network.node[4].content_store 	p_hit[4] 	0.09768539356493
scalar abilene_cost_network.node[4].content_store 	hits[4] 	7162
scalar abilene_cost_network.node[4].content_store 	misses[4] 	66155
scalar abilene_cost_network.node[4].content_store 	decision_yes[4] 	668
scalar abilene_cost_network.node[4].content_store 	decision_no[4] 	65485
scalar abilene_cost_network.node[4].content_store 	decision_ratio[4] 	0.010097803576557
scalar abilene_cost_network.node[5].core_layer 	interests[5] 	179386
scalar abilene_cost_network.node[5].core_layer 	data[5] 	109713
scalar abilene_cost_network.node[5].content_store 	p_hit[5] 	0.3882465744261
scalar abilene_cost_network.node[5].content_store 	hits[5] 	69646
scalar abilene_cost_network.node[5].content_store 	misses[5] 	109740
scalar abilene_cost_network.node[5].content_store 	decision_yes[5] 	1086
scalar abilene_cost_network.node[5].content_store 	decision_no[5] 	108627
scalar abilene_cost_network.node[5].content_store 	decision_ratio[5] 	0.0098985534986738
scalar abilene_cost_network.node[6].core_layer 	interests[6] 	36398
scalar abilene_cost_network.node[6].core_layer 	data[6] 	31650
scalar abilene_cost_network.node[6].content_store 	p_hit[6] 	0.13044672784219
scalar abilene_cost_network.node[6].content_store 	hits[6] 	4748
scalar abilene_cost_network.node[6].content_store 	misses[6] 	31650
scalar abilene_cost_network.node[6].content_store 	decision_yes[6] 	297
scalar abilene_cost_network.node[6].content_store 	decision_no[6] 	31353
scalar abilene_cost_network.node[6].content_store 	decision_ratio[6] 	0.0093838862559242
scalar abilene_cost_network.node[7].core_layer 	interests[7] 	95454
scalar abilene_cost_network.node[7].core_layer 	data[7] 	85824
scalar abilene_cost_network.node[7].content_store 	p_hit[7] 	0.1008862907788
scalar abilene_cost_network.node[7].content_store 	hits[7] 	9630
scalar abilene_cost_network.node[7].content_store 	misses[7] 	85824
scalar abilene_cost_network.node[7].content_store 	decision_yes[7] 	883
scalar abilene_cost_network.node[7].content_store 	decision_no[7] 	84941
scalar abilene_cost_network.node[7].content_store 	decision_ratio[7] 	0.010288497390007
scalar abilene_cost_network.node[8].core_layer 	interests[8] 	37025
scalar abilene_cost_network.node[8].core_layer 	data[8] 	31934
scalar abilene_cost_network.node[8].content_store 	p_hit[8] 	0.13750168804862
scalar abilene_cost_network.node[8].content_store 	hits[8] 	5091
scalar abilene_cost_network.node[8].content_store 	misses[8] 	31934
scalar abilene_cost_network.node[8].content_store 	decision_yes[8] 	320
scalar abilene_cost_network.node[8].content_store 	decision_no[8] 	31614
scalar abilene_cost_network.node[8].content_store 	decision_ratio[8] 	0.010020667626981
scalar abilene_cost_network.node[9].core_layer 	interests[9] 	180175
scalar abilene_cost_network.node[9].core_layer 	data[9] 	109794
scalar abilene_cost_network.node[9].content_store 	p_hit[9] 	0.39052587761898
scalar abilene_cost_network.node[9].content_store 	hits[9] 	70363
scalar abilene_cost_network.node[9].content_store 	misses[9] 	109812
scalar abilene_cost_network.node[9].content_store 	decision_yes[9] 	1068
scalar abilene_cost_network.node[9].content_store 	decision_no[9] 	108726
scalar abilene_cost_network.node[9].content_store 	decision_ratio[9] 	0.0097273075031422
scalar abilene_cost_network.node[10].core_layer 	interests[10] 	142221
scalar abilene_cost_network.node[10].core_layer 	data[10] 	128743
scalar abilene_cost_network.node[10].content_store 	p_hit[10] 	0.094782064533367
scalar abilene_cost_network.node[10].content_store 	hits[10] 	13480
scalar abilene_cost_network.node[10].content_store 	misses[10] 	128741
scalar abilene_cost_network.node[10].content_store 	decision_yes[10] 	1293
scalar abilene_cost_network.node[10].content_store 	decision_no[10] 	127450
scalar abilene_cost_network.node[10].content_store 	decision_ratio[10] 	0.010043264488166
scalar abilene_cost_network.node[11].core_layer 	interests[11] 	94655
scalar abilene_cost_network.node[11].core_layer 	repo_load[11] 	94655
scalar abilene_cost_network.node[11].core_layer 	data[11] 	0
scalar abilene_cost_network.node[11].content_store 	p_hit[11] 	0
scalar abilene_cost_network.node[11].content_store 	hits[11] 	0
scalar abilene_cost_network.node[11].content_store 	misses[11] 	94655
scalar abilene_cost_network.node[11].content_store 	decision_yes[11] 	0
scalar abilene_cost_network.node[11].content_store 	decision_no[11] 	94655
scalar abilene_cost_network.node[11].content_store 	decision_ratio[11] 	0
scalar abilene_cost_network.node[12].core_layer 	interests[12] 	85824
scalar abilene_cost_network.node[12].core_layer 	repo_load[12] 	85824
scalar abilene_cost_network.node[12].core_layer 	data[12] 	0
scalar abilene_cost_network.node[12].content_store 	p_hit[12] 	0
scalar abilene_cost_network.node[12].content_store 	hits[12] 	0
scalar abilene_cost_network.node[12].content_store 	misses[12] 	85824
scalar abilene_cost_network.node[12].content_store 	decision_yes[12] 	0
scalar abilene_cost_network.node[12].content_store 	decision_no[12] 	85824
scalar abilene_cost_network.node[12].content_store 	decision_ratio[12] 	0
scalar abilene_cost_network.node[13].core_layer 	interests[13] 	90582
scalar abilene_cost_network.node[13].core_layer 	repo_load[13] 	90582
scalar abilene_cost_network.node[13].core_layer 	data[13] 	0
scalar abilene_cost_network.node[13].content_store 	p_hit[13] 	0
scalar abilene_cost_network.node[13].content_store 	hits[13] 	0
scalar abilene_cost_network.node[13].content_store 	misses[13] 	90582
scalar abilene_cost_network.node[13].content_store 	decision_yes[13] 	0
scalar abilene_cost_network.node[13].content_store 	decision_no[13] 	90582
scalar abilene_cost_network.node[13].content_store 	decision_ratio[13] 	0
scalar abilene_cost_network.client[0] 	hdistance[0] 	2.1918222894919
scalar abilene_cost_network.client[0] 	downloads[0] 	179708
scalar abilene_cost_network.client[0] 	avg_time[0] 	0.00880929291
scalar abilene_cost_network.client[0] 	interests_sent[0] 	179725
scalar abilene_cost_network.client[5] 	hdistance[5] 	2.9916647617349
scalar abilene_cost_network.client[5] 	downloads[5] 	179359
scalar abilene_cost_network.client[5] 	avg_time[5] 	0.010770621359
scalar abilene_cost_network.client[5] 	interests_sent[5] 	179386
scalar abilene_cost_network.client[9] 	hdistance[9] 	1.9984013943394
scalar abilene_cost_network.client[9] 	downloads[9] 	180157
scalar abilene_cost_network.client[9] 	avg_time[9] 	0.007618819734
scalar abilene_cost_network.client[9] 	interests_sent[9] 	180175
