version 2
run General-30-20140626-17:24:36-16728
attr D fix0.01
attr F spr
attr R lru
attr a 1
attr configname General
attr csize 1e3
attr ctlg 1e5
attr datetime 20140626-17:24:36
attr experiment General
attr inifile omnetpp.ini
attr iterationvars "$net=abilene_cost, $rep=1, $priceratiovalue=10, $weights=0.333_0.333_0.334, $lambda=100, $a=1, $ctlg=1e5, $F=spr, $ttl=1000, $D=fix0.01, $xi=1, $R=lru, $csize=1e3, $pricebits=0, $mytime=1800"
attr iterationvars2 "$net=abilene_cost, $rep=1, $priceratiovalue=10, $weights=0.333_0.333_0.334, $lambda=100, $a=1, $ctlg=1e5, $F=spr, $ttl=1000, $D=fix0.01, $xi=1, $R=lru, $csize=1e3, $pricebits=0, $mytime=1800, $repetition=0"
attr lambda 100
attr measurement "$net=abilene_cost, $rep=1, $priceratiovalue=10, $weights=0.333_0.333_0.334, $lambda=100, $a=1, $ctlg=1e5, $F=spr, $ttl=1000, $D=fix0.01, $xi=1, $R=lru, $csize=1e3, $pricebits=0, $mytime=1800"
attr mytime 1800
attr net abilene_cost
attr network "networks.${net=geant_cost, abilene_cost}_network"
attr pricebits 0
attr priceratiovalue 10
attr processid 16728
attr rep 1
attr repetition 0
attr replication #0
attr resultdir results
attr runnumber 30
attr seedset 1
attr ttl 1000
attr weights 0.333_0.333_0.334
attr xi 1

scalar . 	a 	1
scalar . 	csize 	1e3
scalar . 	ctlg 	1e5
scalar . 	lambda 	100
scalar . 	mytime 	1800
scalar . 	pricebits 	0
scalar . 	priceratiovalue 	10
scalar . 	rep 	1
scalar . 	ttl 	1000
scalar . 	xi 	1
scalar abilene_cost_network.content_distribution 	repo-0 	11
scalar abilene_cost_network.content_distribution 	repo-1 	12
scalar abilene_cost_network.content_distribution 	repo-2 	13
scalar abilene_cost_network.content_distribution 	client-0 	5
scalar abilene_cost_network.content_distribution 	client-1 	0
scalar abilene_cost_network.content_distribution 	client-2 	9
scalar abilene_cost_network.content_distribution 	repo-0_card 	33396
scalar abilene_cost_network.content_distribution 	repo-1_card 	33039
scalar abilene_cost_network.content_distribution 	repo-2_card 	33565
scalar abilene_cost_network.statistics 	repo_popularity[0] 	0.28686251265602
scalar abilene_cost_network.statistics 	repo_popularity[1] 	0.2886063426465
scalar abilene_cost_network.statistics 	repo_popularity[2] 	0.42453114469748
scalar abilene_cost_network.statistics 	stabilization_time 	474.4
scalar abilene_cost_network.node[1].face$o[4].channel 	price[1] 	0
scalar abilene_cost_network.node[1].face$o[4].channel 	represented_price[1] 	0
scalar abilene_cost_network.node[7].face$o[4].channel 	price[7] 	0
scalar abilene_cost_network.node[7].face$o[4].channel 	represented_price[7] 	0
scalar abilene_cost_network.node[10].face$o[4].channel 	price[10] 	0
scalar abilene_cost_network.node[10].face$o[4].channel 	represented_price[10] 	0
scalar abilene_cost_network.node[11].face$o[1].channel 	price[11] 	0
scalar abilene_cost_network.node[11].face$o[1].channel 	represented_price[11] 	0
scalar abilene_cost_network.node[12].face$o[1].channel 	price[12] 	1
scalar abilene_cost_network.node[12].face$o[1].channel 	represented_price[12] 	1
scalar abilene_cost_network.node[13].face$o[1].channel 	price[13] 	10
scalar abilene_cost_network.node[13].face$o[1].channel 	represented_price[13] 	10
scalar abilene_cost_network.statistics 	p_hit 	0.17093094668424
scalar abilene_cost_network.statistics 	interests 	111652.85714286
scalar abilene_cost_network.statistics 	data 	73128.071428571
scalar abilene_cost_network.statistics 	hdistance 	2.4028069210249
scalar abilene_cost_network.statistics 	avg_time 	0.009086179476
scalar abilene_cost_network.statistics 	downloads 	539249
scalar abilene_cost_network.statistics 	total_cost 	1028009
scalar abilene_cost_network.statistics 	total_replicas 	100000
scalar abilene_cost_network.statistics 	inner_hit 	0.49548167915008
scalar abilene_cost_network.statistics 	interests_sent 	539345
scalar abilene_cost_network.node[0].core_layer 	interests[0] 	180193
scalar abilene_cost_network.node[0].core_layer 	data[0] 	109769
scalar abilene_cost_network.node[0].core_layer 	repo_int[0] 	272061
scalar abilene_cost_network.node[0].content_store 	p_hit[0] 	0.39064780540865
scalar abilene_cost_network.node[0].content_store 	hits[0] 	70392
scalar abilene_cost_network.node[0].content_store 	misses[0] 	109801
scalar abilene_cost_network.node[0].content_store 	decision_yes[0] 	1054
scalar abilene_cost_network.node[0].content_store 	decision_no[0] 	108715
scalar abilene_cost_network.node[0].content_store 	decision_ratio[0] 	0.0096019823447421
scalar abilene_cost_network.node[1].core_layer 	interests[1] 	170811
scalar abilene_cost_network.node[1].core_layer 	data[1] 	159538
scalar abilene_cost_network.node[1].content_store 	p_hit[1] 	0.065991066149136
scalar abilene_cost_network.node[1].content_store 	hits[1] 	11272
scalar abilene_cost_network.node[1].content_store 	misses[1] 	159539
scalar abilene_cost_network.node[1].content_store 	decision_yes[1] 	1630
scalar abilene_cost_network.node[1].content_store 	decision_no[1] 	157908
scalar abilene_cost_network.node[1].content_store 	decision_ratio[1] 	0.010217001592097
scalar abilene_cost_network.node[2].core_layer 	interests[2] 	99290
scalar abilene_cost_network.node[2].core_layer 	data[2] 	95291
scalar abilene_cost_network.node[2].content_store 	p_hit[2] 	0.040286030818814
scalar abilene_cost_network.node[2].content_store 	hits[2] 	4000
scalar abilene_cost_network.node[2].content_store 	misses[2] 	95290
scalar abilene_cost_network.node[2].content_store 	decision_yes[2] 	954
scalar abilene_cost_network.node[2].content_store 	decision_no[2] 	94337
scalar abilene_cost_network.node[2].content_store 	decision_ratio[2] 	0.010011438645832
scalar abilene_cost_network.node[3].core_layer 	interests[3] 	100403
scalar abilene_cost_network.node[3].core_layer 	data[3] 	96324
scalar abilene_cost_network.node[3].content_store 	p_hit[3] 	0.040626276107288
scalar abilene_cost_network.node[3].content_store 	hits[3] 	4079
scalar abilene_cost_network.node[3].content_store 	misses[3] 	96324
scalar abilene_cost_network.node[3].content_store 	decision_yes[3] 	924
scalar abilene_cost_network.node[3].content_store 	decision_no[3] 	95400
scalar abilene_cost_network.node[3].content_store 	decision_ratio[3] 	0.0095926248909929
scalar abilene_cost_network.node[4].core_layer 	interests[4] 	73774
scalar abilene_cost_network.node[4].core_layer 	data[4] 	67805
scalar abilene_cost_network.node[4].content_store 	p_hit[4] 	0.080909263426139
scalar abilene_cost_network.node[4].content_store 	hits[4] 	5969
scalar abilene_cost_network.node[4].content_store 	misses[4] 	67805
scalar abilene_cost_network.node[4].content_store 	decision_yes[4] 	713
scalar abilene_cost_network.node[4].content_store 	decision_no[4] 	67092
scalar abilene_cost_network.node[4].content_store 	decision_ratio[4] 	0.010515448713222
scalar abilene_cost_network.node[5].core_layer 	interests[5] 	179856
scalar abilene_cost_network.node[5].core_layer 	data[5] 	109416
scalar abilene_cost_network.node[5].content_store 	p_hit[5] 	0.39142425051152
scalar abilene_cost_network.node[5].content_store 	hits[5] 	70400
scalar abilene_cost_network.node[5].content_store 	misses[5] 	109456
scalar abilene_cost_network.node[5].content_store 	decision_yes[5] 	1092
scalar abilene_cost_network.node[5].content_store 	decision_no[5] 	108324
scalar abilene_cost_network.node[5].content_store 	decision_ratio[5] 	0.0099802588286905
scalar abilene_cost_network.node[6].core_layer 	interests[6] 	35642
scalar abilene_cost_network.node[6].core_layer 	data[6] 	31245
scalar abilene_cost_network.node[6].content_store 	p_hit[6] 	0.12336569216093
scalar abilene_cost_network.node[6].content_store 	hits[6] 	4397
scalar abilene_cost_network.node[6].content_store 	misses[6] 	31245
scalar abilene_cost_network.node[6].content_store 	decision_yes[6] 	341
scalar abilene_cost_network.node[6].content_store 	decision_no[6] 	30904
scalar abilene_cost_network.node[6].content_store 	decision_ratio[6] 	0.010913746199392
scalar abilene_cost_network.node[7].core_layer 	interests[7] 	94032
scalar abilene_cost_network.node[7].core_layer 	data[7] 	85099
scalar abilene_cost_network.node[7].content_store 	p_hit[7] 	0.094999574612898
scalar abilene_cost_network.node[7].content_store 	hits[7] 	8933
scalar abilene_cost_network.node[7].content_store 	misses[7] 	85099
scalar abilene_cost_network.node[7].content_store 	decision_yes[7] 	865
scalar abilene_cost_network.node[7].content_store 	decision_no[7] 	84234
scalar abilene_cost_network.node[7].content_store 	decision_ratio[7] 	0.010164631781807
scalar abilene_cost_network.node[8].core_layer 	interests[8] 	36068
scalar abilene_cost_network.node[8].core_layer 	data[8] 	31266
scalar abilene_cost_network.node[8].content_store 	p_hit[8] 	0.13313740711988
scalar abilene_cost_network.node[8].content_store 	hits[8] 	4802
scalar abilene_cost_network.node[8].content_store 	misses[8] 	31266
scalar abilene_cost_network.node[8].content_store 	decision_yes[8] 	295
scalar abilene_cost_network.node[8].content_store 	decision_no[8] 	30971
scalar abilene_cost_network.node[8].content_store 	decision_ratio[8] 	0.009435169193373
scalar abilene_cost_network.node[9].core_layer 	interests[9] 	179296
scalar abilene_cost_network.node[9].core_layer 	data[9] 	109969
scalar abilene_cost_network.node[9].content_store 	p_hit[9] 	0.38652842227378
scalar abilene_cost_network.node[9].content_store 	hits[9] 	69303
scalar abilene_cost_network.node[9].content_store 	misses[9] 	109993
scalar abilene_cost_network.node[9].content_store 	decision_yes[9] 	1076
scalar abilene_cost_network.node[9].content_store 	decision_no[9] 	108893
scalar abilene_cost_network.node[9].content_store 	decision_ratio[9] 	0.0097845756531386
scalar abilene_cost_network.node[10].core_layer 	interests[10] 	141714
scalar abilene_cost_network.node[10].core_layer 	data[10] 	128071
scalar abilene_cost_network.node[10].content_store 	p_hit[10] 	0.09626430698449
scalar abilene_cost_network.node[10].content_store 	hits[10] 	13642
scalar abilene_cost_network.node[10].content_store 	misses[10] 	128072
scalar abilene_cost_network.node[10].content_store 	decision_yes[10] 	1277
scalar abilene_cost_network.node[10].content_store 	decision_no[10] 	126794
scalar abilene_cost_network.node[10].content_store 	decision_ratio[10] 	0.0099710316933576
scalar abilene_cost_network.node[11].core_layer 	interests[11] 	92671
scalar abilene_cost_network.node[11].core_layer 	repo_load[11] 	92671
scalar abilene_cost_network.node[11].core_layer 	data[11] 	0
scalar abilene_cost_network.node[11].content_store 	p_hit[11] 	0
scalar abilene_cost_network.node[11].content_store 	hits[11] 	0
scalar abilene_cost_network.node[11].content_store 	misses[11] 	92671
scalar abilene_cost_network.node[11].content_store 	decision_yes[11] 	0
scalar abilene_cost_network.node[11].content_store 	decision_no[11] 	92671
scalar abilene_cost_network.node[11].content_store 	decision_ratio[11] 	0
scalar abilene_cost_network.node[12].core_layer 	interests[12] 	85099
scalar abilene_cost_network.node[12].core_layer 	repo_load[12] 	85099
scalar abilene_cost_network.node[12].core_layer 	data[12] 	0
scalar abilene_cost_network.node[12].content_store 	p_hit[12] 	0
scalar abilene_cost_network.node[12].content_store 	hits[12] 	0
scalar abilene_cost_network.node[12].content_store 	misses[12] 	85099
scalar abilene_cost_network.node[12].content_store 	decision_yes[12] 	0
scalar abilene_cost_network.node[12].content_store 	decision_no[12] 	85099
scalar abilene_cost_network.node[12].content_store 	decision_ratio[12] 	0
scalar abilene_cost_network.node[13].core_layer 	interests[13] 	94291
scalar abilene_cost_network.node[13].core_layer 	repo_load[13] 	94291
scalar abilene_cost_network.node[13].core_layer 	data[13] 	0
scalar abilene_cost_network.node[13].content_store 	p_hit[13] 	0
scalar abilene_cost_network.node[13].content_store 	hits[13] 	0
scalar abilene_cost_network.node[13].content_store 	misses[13] 	94291
scalar abilene_cost_network.node[13].content_store 	decision_yes[13] 	0
scalar abilene_cost_network.node[13].content_store 	decision_no[13] 	94291
scalar abilene_cost_network.node[13].content_store 	decision_ratio[13] 	0
scalar abilene_cost_network.client[0] 	hdistance[0] 	2.191123495096
scalar abilene_cost_network.client[0] 	downloads[0] 	180161
scalar abilene_cost_network.client[0] 	avg_time[0] 	0.008815527226
scalar abilene_cost_network.client[0] 	interests_sent[0] 	180193
scalar abilene_cost_network.client[5] 	hdistance[5] 	3.0075076745117
scalar abilene_cost_network.client[5] 	downloads[5] 	179816
scalar abilene_cost_network.client[5] 	avg_time[5] 	0.010798872142
scalar abilene_cost_network.client[5] 	interests_sent[5] 	179856
scalar abilene_cost_network.client[9] 	hdistance[9] 	2.0097895934669
scalar abilene_cost_network.client[9] 	downloads[9] 	179272
scalar abilene_cost_network.client[9] 	avg_time[9] 	0.00764413906
scalar abilene_cost_network.client[9] 	interests_sent[9] 	179296
