version 2
run General-38-20140627-19:42:59-22852
attr D fix0.01
attr F spr
attr R lru
attr a 1
attr configname General
attr csize 1e3
attr ctlg 1e5
attr datetime 20140627-19:42:59
attr experiment General
attr inifile omnetpp.ini
attr iterationvars "$net=abilene_cost, $rep=14, $priceratiovalue=10, $weights=0.333_0.333_0.334, $lambda=100, $a=1, $ctlg=1e5, $F=spr, $ttl=1000, $D=fix0.01, $xi=1, $R=lru, $csize=1e3, $pricebits=0, $window=60, $variance=0.05, $mytime=1800"
attr iterationvars2 "$net=abilene_cost, $rep=14, $priceratiovalue=10, $weights=0.333_0.333_0.334, $lambda=100, $a=1, $ctlg=1e5, $F=spr, $ttl=1000, $D=fix0.01, $xi=1, $R=lru, $csize=1e3, $pricebits=0, $window=60, $variance=0.05, $mytime=1800, $repetition=0"
attr lambda 100
attr measurement "$net=abilene_cost, $rep=14, $priceratiovalue=10, $weights=0.333_0.333_0.334, $lambda=100, $a=1, $ctlg=1e5, $F=spr, $ttl=1000, $D=fix0.01, $xi=1, $R=lru, $csize=1e3, $pricebits=0, $window=60, $variance=0.05, $mytime=1800"
attr mytime 1800
attr net abilene_cost
attr network "networks.${net=geant_cost, abilene_cost}_network"
attr pricebits 0
attr priceratiovalue 10
attr processid 22852
attr rep 14
attr repetition 0
attr replication #0
attr resultdir results
attr runnumber 38
attr seedset 14
attr ttl 1000
attr variance 0.05
attr weights 0.333_0.333_0.334
attr window 60
attr xi 1

scalar . 	a 	1
scalar . 	csize 	1e3
scalar . 	ctlg 	1e5
scalar . 	lambda 	100
scalar . 	mytime 	1800
scalar . 	pricebits 	0
scalar . 	priceratiovalue 	10
scalar . 	rep 	14
scalar . 	ttl 	1000
scalar . 	variance 	0.05
scalar . 	window 	60
scalar . 	xi 	1
scalar abilene_cost_network.content_distribution 	repo-0 	11
scalar abilene_cost_network.content_distribution 	repo-1 	12
scalar abilene_cost_network.content_distribution 	repo-2 	13
scalar abilene_cost_network.content_distribution 	client-0 	5
scalar abilene_cost_network.content_distribution 	client-1 	0
scalar abilene_cost_network.content_distribution 	client-2 	9
scalar abilene_cost_network.content_distribution 	repo-0_card 	32966
scalar abilene_cost_network.content_distribution 	repo-1_card 	33555
scalar abilene_cost_network.content_distribution 	repo-2_card 	33479
scalar abilene_cost_network.statistics 	repo_popularity[0] 	0.41551934442987
scalar abilene_cost_network.statistics 	repo_popularity[1] 	0.31847271720617
scalar abilene_cost_network.statistics 	repo_popularity[2] 	0.26600793836396
scalar abilene_cost_network.statistics 	stabilization_time 	544.3
scalar abilene_cost_network.node[1].face$o[4].channel 	price[1] 	0
scalar abilene_cost_network.node[1].face$o[4].channel 	represented_price[1] 	0
scalar abilene_cost_network.node[7].face$o[4].channel 	price[7] 	0
scalar abilene_cost_network.node[7].face$o[4].channel 	represented_price[7] 	0
scalar abilene_cost_network.node[10].face$o[4].channel 	price[10] 	0
scalar abilene_cost_network.node[10].face$o[4].channel 	represented_price[10] 	0
scalar abilene_cost_network.node[11].face$o[1].channel 	price[11] 	0
scalar abilene_cost_network.node[11].face$o[1].channel 	represented_price[11] 	0
scalar abilene_cost_network.node[12].face$o[1].channel 	price[12] 	1
scalar abilene_cost_network.node[12].face$o[1].channel 	represented_price[12] 	1
scalar abilene_cost_network.node[13].face$o[1].channel 	price[13] 	10
scalar abilene_cost_network.node[13].face$o[1].channel 	represented_price[13] 	10
scalar abilene_cost_network.statistics 	p_hit 	0.1710157260775
scalar abilene_cost_network.statistics 	interests 	111466.35714286
scalar abilene_cost_network.statistics 	data 	72959.142857143
scalar abilene_cost_network.statistics 	hdistance 	2.4002740248189
scalar abilene_cost_network.statistics 	avg_time 	0.009077236232
scalar abilene_cost_network.statistics 	downloads 	539009
scalar abilene_cost_network.statistics 	total_cost 	1050895
scalar abilene_cost_network.statistics 	total_replicas 	100000
scalar abilene_cost_network.statistics 	inner_hit 	0.49511974753668
scalar abilene_cost_network.statistics 	interests_sent 	539099
scalar abilene_cost_network.node[0].core_layer 	interests[0] 	180399
scalar abilene_cost_network.node[0].core_layer 	data[0] 	109640
scalar abilene_cost_network.node[0].core_layer 	repo_int[0] 	272135
scalar abilene_cost_network.node[0].content_store 	p_hit[0] 	0.39204762775847
scalar abilene_cost_network.node[0].content_store 	hits[0] 	70725
scalar abilene_cost_network.node[0].content_store 	misses[0] 	109674
scalar abilene_cost_network.node[0].content_store 	decision_yes[0] 	1040
scalar abilene_cost_network.node[0].content_store 	decision_no[0] 	108600
scalar abilene_cost_network.node[0].content_store 	decision_ratio[0] 	0.0094855892010215
scalar abilene_cost_network.node[1].core_layer 	interests[1] 	172929
scalar abilene_cost_network.node[1].core_layer 	data[1] 	160861
scalar abilene_cost_network.node[1].content_store 	p_hit[1] 	0.069785865875591
scalar abilene_cost_network.node[1].content_store 	hits[1] 	12068
scalar abilene_cost_network.node[1].content_store 	misses[1] 	160861
scalar abilene_cost_network.node[1].content_store 	decision_yes[1] 	1691
scalar abilene_cost_network.node[1].content_store 	decision_no[1] 	159170
scalar abilene_cost_network.node[1].content_store 	decision_ratio[1] 	0.010512181324249
scalar abilene_cost_network.node[2].core_layer 	interests[2] 	98249
scalar abilene_cost_network.node[2].core_layer 	data[2] 	94704
scalar abilene_cost_network.node[2].content_store 	p_hit[2] 	0.036081792181091
scalar abilene_cost_network.node[2].content_store 	hits[2] 	3545
scalar abilene_cost_network.node[2].content_store 	misses[2] 	94704
scalar abilene_cost_network.node[2].content_store 	decision_yes[2] 	961
scalar abilene_cost_network.node[2].content_store 	decision_no[2] 	93743
scalar abilene_cost_network.node[2].content_store 	decision_ratio[2] 	0.01014740665653
scalar abilene_cost_network.node[3].core_layer 	interests[3] 	99587
scalar abilene_cost_network.node[3].core_layer 	data[3] 	95535
scalar abilene_cost_network.node[3].content_store 	p_hit[3] 	0.040678000140581
scalar abilene_cost_network.node[3].content_store 	hits[3] 	4051
scalar abilene_cost_network.node[3].content_store 	misses[3] 	95536
scalar abilene_cost_network.node[3].content_store 	decision_yes[3] 	939
scalar abilene_cost_network.node[3].content_store 	decision_no[3] 	94596
scalar abilene_cost_network.node[3].content_store 	decision_ratio[3] 	0.0098288585335217
scalar abilene_cost_network.node[4].core_layer 	interests[4] 	73393
scalar abilene_cost_network.node[4].core_layer 	data[4] 	67291
scalar abilene_cost_network.node[4].content_store 	p_hit[4] 	0.083114193451692
scalar abilene_cost_network.node[4].content_store 	hits[4] 	6100
scalar abilene_cost_network.node[4].content_store 	misses[4] 	67293
scalar abilene_cost_network.node[4].content_store 	decision_yes[4] 	675
scalar abilene_cost_network.node[4].content_store 	decision_no[4] 	66616
scalar abilene_cost_network.node[4].content_store 	decision_ratio[4] 	0.010031059131236
scalar abilene_cost_network.node[5].core_layer 	interests[5] 	179375
scalar abilene_cost_network.node[5].core_layer 	data[5] 	108877
scalar abilene_cost_network.node[5].content_store 	p_hit[5] 	0.39282508710801
scalar abilene_cost_network.node[5].content_store 	hits[5] 	70463
scalar abilene_cost_network.node[5].content_store 	misses[5] 	108912
scalar abilene_cost_network.node[5].content_store 	decision_yes[5] 	1118
scalar abilene_cost_network.node[5].content_store 	decision_no[5] 	107759
scalar abilene_cost_network.node[5].content_store 	decision_ratio[5] 	0.010268468087842
scalar abilene_cost_network.node[6].core_layer 	interests[6] 	35486
scalar abilene_cost_network.node[6].core_layer 	data[6] 	31506
scalar abilene_cost_network.node[6].content_store 	p_hit[6] 	0.11215690694922
scalar abilene_cost_network.node[6].content_store 	hits[6] 	3980
scalar abilene_cost_network.node[6].content_store 	misses[6] 	31506
scalar abilene_cost_network.node[6].content_store 	decision_yes[6] 	327
scalar abilene_cost_network.node[6].content_store 	decision_no[6] 	31179
scalar abilene_cost_network.node[6].content_store 	decision_ratio[6] 	0.010378975433251
scalar abilene_cost_network.node[7].core_layer 	interests[7] 	94079
scalar abilene_cost_network.node[7].core_layer 	data[7] 	85725
scalar abilene_cost_network.node[7].content_store 	p_hit[7] 	0.08879771256072
scalar abilene_cost_network.node[7].content_store 	hits[7] 	8354
scalar abilene_cost_network.node[7].content_store 	misses[7] 	85725
scalar abilene_cost_network.node[7].content_store 	decision_yes[7] 	829
scalar abilene_cost_network.node[7].content_store 	decision_no[7] 	84896
scalar abilene_cost_network.node[7].content_store 	decision_ratio[7] 	0.0096704578594342
scalar abilene_cost_network.node[8].core_layer 	interests[8] 	35599
scalar abilene_cost_network.node[8].core_layer 	data[8] 	31298
scalar abilene_cost_network.node[8].content_store 	p_hit[8] 	0.12081800050563
scalar abilene_cost_network.node[8].content_store 	hits[8] 	4301
scalar abilene_cost_network.node[8].content_store 	misses[8] 	31298
scalar abilene_cost_network.node[8].content_store 	decision_yes[8] 	320
scalar abilene_cost_network.node[8].content_store 	decision_no[8] 	30978
scalar abilene_cost_network.node[8].content_store 	decision_ratio[8] 	0.010224295482139
scalar abilene_cost_network.node[9].core_layer 	interests[9] 	179325
scalar abilene_cost_network.node[9].core_layer 	data[9] 	109413
scalar abilene_cost_network.node[9].content_store 	p_hit[9] 	0.38974487662066
scalar abilene_cost_network.node[9].content_store 	hits[9] 	69891
scalar abilene_cost_network.node[9].content_store 	misses[9] 	109434
scalar abilene_cost_network.node[9].content_store 	decision_yes[9] 	1076
scalar abilene_cost_network.node[9].content_store 	decision_no[9] 	108337
scalar abilene_cost_network.node[9].content_store 	decision_ratio[9] 	0.0098342975697586
scalar abilene_cost_network.node[10].core_layer 	interests[10] 	139973
scalar abilene_cost_network.node[10].core_layer 	data[10] 	126578
scalar abilene_cost_network.node[10].content_store 	p_hit[10] 	0.095711315753753
scalar abilene_cost_network.node[10].content_store 	hits[10] 	13397
scalar abilene_cost_network.node[10].content_store 	misses[10] 	126576
scalar abilene_cost_network.node[10].content_store 	decision_yes[10] 	1264
scalar abilene_cost_network.node[10].content_store 	decision_no[10] 	125314
scalar abilene_cost_network.node[10].content_store 	decision_ratio[10] 	0.0099859375246883
scalar abilene_cost_network.node[11].core_layer 	interests[11] 	89893
scalar abilene_cost_network.node[11].core_layer 	repo_load[11] 	89893
scalar abilene_cost_network.node[11].core_layer 	data[11] 	0
scalar abilene_cost_network.node[11].content_store 	p_hit[11] 	0
scalar abilene_cost_network.node[11].content_store 	hits[11] 	0
scalar abilene_cost_network.node[11].content_store 	misses[11] 	89893
scalar abilene_cost_network.node[11].content_store 	decision_yes[11] 	0
scalar abilene_cost_network.node[11].content_store 	decision_no[11] 	89893
scalar abilene_cost_network.node[11].content_store 	decision_ratio[11] 	0
scalar abilene_cost_network.node[12].core_layer 	interests[12] 	85725
scalar abilene_cost_network.node[12].core_layer 	repo_load[12] 	85725
scalar abilene_cost_network.node[12].core_layer 	data[12] 	0
scalar abilene_cost_network.node[12].content_store 	p_hit[12] 	0
scalar abilene_cost_network.node[12].content_store 	hits[12] 	0
scalar abilene_cost_network.node[12].content_store 	misses[12] 	85725
scalar abilene_cost_network.node[12].content_store 	decision_yes[12] 	0
scalar abilene_cost_network.node[12].content_store 	decision_no[12] 	85725
scalar abilene_cost_network.node[12].content_store 	decision_ratio[12] 	0
scalar abilene_cost_network.node[13].core_layer 	interests[13] 	96517
scalar abilene_cost_network.node[13].core_layer 	repo_load[13] 	96517
scalar abilene_cost_network.node[13].core_layer 	data[13] 	0
scalar abilene_cost_network.node[13].content_store 	p_hit[13] 	0
scalar abilene_cost_network.node[13].content_store 	hits[13] 	0
scalar abilene_cost_network.node[13].content_store 	misses[13] 	96517
scalar abilene_cost_network.node[13].content_store 	decision_yes[13] 	0
scalar abilene_cost_network.node[13].content_store 	decision_no[13] 	96517
scalar abilene_cost_network.node[13].content_store 	decision_ratio[13] 	0
scalar abilene_cost_network.client[0] 	hdistance[0] 	2.1807113353478
scalar abilene_cost_network.client[0] 	downloads[0] 	180365
scalar abilene_cost_network.client[0] 	avg_time[0] 	0.008789539791
scalar abilene_cost_network.client[0] 	interests_sent[0] 	180399
scalar abilene_cost_network.client[5] 	hdistance[5] 	3.0017787442845
scalar abilene_cost_network.client[5] 	downloads[5] 	179340
scalar abilene_cost_network.client[5] 	avg_time[5] 	0.010766288426
scalar abilene_cost_network.client[5] 	interests_sent[5] 	179375
scalar abilene_cost_network.client[9] 	hdistance[9] 	2.0183319948244
scalar abilene_cost_network.client[9] 	downloads[9] 	179304
scalar abilene_cost_network.client[9] 	avg_time[9] 	0.00767588048
scalar abilene_cost_network.client[9] 	interests_sent[9] 	179325
