version 2
run General-46-20140626-18:08:32-10934
attr D fix0.01
attr F spr
attr R lru
attr a 1
attr configname General
attr csize 1e3
attr ctlg 1e5
attr datetime 20140626-18:08:32
attr experiment General
attr inifile omnetpp.ini
attr iterationvars "$net=abilene_cost, $rep=6, $priceratiovalue=10, $weights=0.333_0.333_0.334, $lambda=100, $a=1, $ctlg=1e5, $F=spr, $ttl=1000, $D=fix0.01, $xi=1, $R=lru, $csize=1e3, $pricebits=0, $mytime=1800"
attr iterationvars2 "$net=abilene_cost, $rep=6, $priceratiovalue=10, $weights=0.333_0.333_0.334, $lambda=100, $a=1, $ctlg=1e5, $F=spr, $ttl=1000, $D=fix0.01, $xi=1, $R=lru, $csize=1e3, $pricebits=0, $mytime=1800, $repetition=0"
attr lambda 100
attr measurement "$net=abilene_cost, $rep=6, $priceratiovalue=10, $weights=0.333_0.333_0.334, $lambda=100, $a=1, $ctlg=1e5, $F=spr, $ttl=1000, $D=fix0.01, $xi=1, $R=lru, $csize=1e3, $pricebits=0, $mytime=1800"
attr mytime 1800
attr net abilene_cost
attr network "networks.${net=geant_cost, abilene_cost}_network"
attr pricebits 0
attr priceratiovalue 10
attr processid 10934
attr rep 6
attr repetition 0
attr replication #0
attr resultdir results
attr runnumber 46
attr seedset 6
attr ttl 1000
attr weights 0.333_0.333_0.334
attr xi 1

scalar . 	a 	1
scalar . 	csize 	1e3
scalar . 	ctlg 	1e5
scalar . 	lambda 	100
scalar . 	mytime 	1800
scalar . 	pricebits 	0
scalar . 	priceratiovalue 	10
scalar . 	rep 	6
scalar . 	ttl 	1000
scalar . 	xi 	1
scalar abilene_cost_network.content_distribution 	repo-0 	11
scalar abilene_cost_network.content_distribution 	repo-1 	12
scalar abilene_cost_network.content_distribution 	repo-2 	13
scalar abilene_cost_network.content_distribution 	client-0 	5
scalar abilene_cost_network.content_distribution 	client-1 	0
scalar abilene_cost_network.content_distribution 	client-2 	9
scalar abilene_cost_network.content_distribution 	repo-0_card 	33436
scalar abilene_cost_network.content_distribution 	repo-1_card 	33143
scalar abilene_cost_network.content_distribution 	repo-2_card 	33421
scalar abilene_cost_network.statistics 	repo_popularity[0] 	0.39107817255936
scalar abilene_cost_network.statistics 	repo_popularity[1] 	0.30968687902184
scalar abilene_cost_network.statistics 	repo_popularity[2] 	0.2992349484188
scalar abilene_cost_network.statistics 	stabilization_time 	529.9
scalar abilene_cost_network.node[1].face$o[4].channel 	price[1] 	0
scalar abilene_cost_network.node[1].face$o[4].channel 	represented_price[1] 	0
scalar abilene_cost_network.node[7].face$o[4].channel 	price[7] 	0
scalar abilene_cost_network.node[7].face$o[4].channel 	represented_price[7] 	0
scalar abilene_cost_network.node[10].face$o[4].channel 	price[10] 	0
scalar abilene_cost_network.node[10].face$o[4].channel 	represented_price[10] 	0
scalar abilene_cost_network.node[11].face$o[1].channel 	price[11] 	0
scalar abilene_cost_network.node[11].face$o[1].channel 	represented_price[11] 	0
scalar abilene_cost_network.node[12].face$o[1].channel 	price[12] 	1
scalar abilene_cost_network.node[12].face$o[1].channel 	represented_price[12] 	1
scalar abilene_cost_network.node[13].face$o[1].channel 	price[13] 	10
scalar abilene_cost_network.node[13].face$o[1].channel 	represented_price[13] 	10
scalar abilene_cost_network.statistics 	p_hit 	0.1700985037948
scalar abilene_cost_network.statistics 	interests 	111844.85714286
scalar abilene_cost_network.statistics 	data 	73307.357142857
scalar abilene_cost_network.statistics 	hdistance 	2.4080014475081
scalar abilene_cost_network.statistics 	avg_time 	0.009099318408
scalar abilene_cost_network.statistics 	downloads 	539446
scalar abilene_cost_network.statistics 	total_cost 	1017994
scalar abilene_cost_network.statistics 	total_replicas 	100000
scalar abilene_cost_network.statistics 	inner_hit 	0.49374172762427
scalar abilene_cost_network.statistics 	interests_sent 	539532
scalar abilene_cost_network.node[0].core_layer 	interests[0] 	180249
scalar abilene_cost_network.node[0].core_layer 	data[0] 	110624
scalar abilene_cost_network.node[0].core_layer 	repo_int[0] 	273099
scalar abilene_cost_network.node[0].content_store 	p_hit[0] 	0.3860714899944
scalar abilene_cost_network.node[0].content_store 	hits[0] 	69589
scalar abilene_cost_network.node[0].content_store 	misses[0] 	110660
scalar abilene_cost_network.node[0].content_store 	decision_yes[0] 	1127
scalar abilene_cost_network.node[0].content_store 	decision_no[0] 	109497
scalar abilene_cost_network.node[0].content_store 	decision_ratio[0] 	0.010187662713335
scalar abilene_cost_network.node[1].core_layer 	interests[1] 	170686
scalar abilene_cost_network.node[1].core_layer 	data[1] 	158909
scalar abilene_cost_network.node[1].content_store 	p_hit[1] 	0.069009760613056
scalar abilene_cost_network.node[1].content_store 	hits[1] 	11779
scalar abilene_cost_network.node[1].content_store 	misses[1] 	158907
scalar abilene_cost_network.node[1].content_store 	decision_yes[1] 	1578
scalar abilene_cost_network.node[1].content_store 	decision_no[1] 	157331
scalar abilene_cost_network.node[1].content_store 	decision_ratio[1] 	0.0099302116305559
scalar abilene_cost_network.node[2].core_layer 	interests[2] 	99444
scalar abilene_cost_network.node[2].core_layer 	data[2] 	95535
scalar abilene_cost_network.node[2].content_store 	p_hit[2] 	0.039318611479828
scalar abilene_cost_network.node[2].content_store 	hits[2] 	3910
scalar abilene_cost_network.node[2].content_store 	misses[2] 	95534
scalar abilene_cost_network.node[2].content_store 	decision_yes[2] 	927
scalar abilene_cost_network.node[2].content_store 	decision_no[2] 	94608
scalar abilene_cost_network.node[2].content_store 	decision_ratio[2] 	0.0097032501177579
scalar abilene_cost_network.node[3].core_layer 	interests[3] 	100864
scalar abilene_cost_network.node[3].core_layer 	data[3] 	96508
scalar abilene_cost_network.node[3].content_store 	p_hit[3] 	0.043196779822335
scalar abilene_cost_network.node[3].content_store 	hits[3] 	4357
scalar abilene_cost_network.node[3].content_store 	misses[3] 	96507
scalar abilene_cost_network.node[3].content_store 	decision_yes[3] 	956
scalar abilene_cost_network.node[3].content_store 	decision_no[3] 	95552
scalar abilene_cost_network.node[3].content_store 	decision_ratio[3] 	0.0099059145355825
scalar abilene_cost_network.node[4].core_layer 	interests[4] 	73528
scalar abilene_cost_network.node[4].core_layer 	data[4] 	67538
scalar abilene_cost_network.node[4].content_store 	p_hit[4] 	0.081479164399956
scalar abilene_cost_network.node[4].content_store 	hits[4] 	5991
scalar abilene_cost_network.node[4].content_store 	misses[4] 	67537
scalar abilene_cost_network.node[4].content_store 	decision_yes[4] 	655
scalar abilene_cost_network.node[4].content_store 	decision_no[4] 	66883
scalar abilene_cost_network.node[4].content_store 	decision_ratio[4] 	0.0096982439515532
scalar abilene_cost_network.node[5].core_layer 	interests[5] 	180183
scalar abilene_cost_network.node[5].core_layer 	data[5] 	109819
scalar abilene_cost_network.node[5].content_store 	p_hit[5] 	0.39036979071278
scalar abilene_cost_network.node[5].content_store 	hits[5] 	70338
scalar abilene_cost_network.node[5].content_store 	misses[5] 	109845
scalar abilene_cost_network.node[5].content_store 	decision_yes[5] 	1055
scalar abilene_cost_network.node[5].content_store 	decision_no[5] 	108764
scalar abilene_cost_network.node[5].content_store 	decision_ratio[5] 	0.0096067165062512
scalar abilene_cost_network.node[6].core_layer 	interests[6] 	36290
scalar abilene_cost_network.node[6].core_layer 	data[6] 	31611
scalar abilene_cost_network.node[6].content_store 	p_hit[6] 	0.1289335905208
scalar abilene_cost_network.node[6].content_store 	hits[6] 	4679
scalar abilene_cost_network.node[6].content_store 	misses[6] 	31611
scalar abilene_cost_network.node[6].content_store 	decision_yes[6] 	298
scalar abilene_cost_network.node[6].content_store 	decision_no[6] 	31313
scalar abilene_cost_network.node[6].content_store 	decision_ratio[6] 	0.0094270981620322
scalar abilene_cost_network.node[7].core_layer 	interests[7] 	94953
scalar abilene_cost_network.node[7].core_layer 	data[7] 	87434
scalar abilene_cost_network.node[7].content_store 	p_hit[7] 	0.079186544922225
scalar abilene_cost_network.node[7].content_store 	hits[7] 	7519
scalar abilene_cost_network.node[7].content_store 	misses[7] 	87434
scalar abilene_cost_network.node[7].content_store 	decision_yes[7] 	901
scalar abilene_cost_network.node[7].content_store 	decision_no[7] 	86533
scalar abilene_cost_network.node[7].content_store 	decision_ratio[7] 	0.010304915707848
scalar abilene_cost_network.node[8].core_layer 	interests[8] 	36104
scalar abilene_cost_network.node[8].core_layer 	data[8] 	31168
scalar abilene_cost_network.node[8].content_store 	p_hit[8] 	0.13671615333481
scalar abilene_cost_network.node[8].content_store 	hits[8] 	4936
scalar abilene_cost_network.node[8].content_store 	misses[8] 	31168
scalar abilene_cost_network.node[8].content_store 	decision_yes[8] 	285
scalar abilene_cost_network.node[8].content_store 	decision_no[8] 	30883
scalar abilene_cost_network.node[8].content_store 	decision_ratio[8] 	0.0091439938398357
scalar abilene_cost_network.node[9].core_layer 	interests[9] 	179100
scalar abilene_cost_network.node[9].core_layer 	data[9] 	109474
scalar abilene_cost_network.node[9].content_store 	p_hit[9] 	0.38862088218872
scalar abilene_cost_network.node[9].content_store 	hits[9] 	69602
scalar abilene_cost_network.node[9].content_store 	misses[9] 	109498
scalar abilene_cost_network.node[9].content_store 	decision_yes[9] 	1066
scalar abilene_cost_network.node[9].content_store 	decision_no[9] 	108408
scalar abilene_cost_network.node[9].content_store 	decision_ratio[9] 	0.0097374719111387
scalar abilene_cost_network.node[10].core_layer 	interests[10] 	141328
scalar abilene_cost_network.node[10].core_layer 	data[10] 	127683
scalar abilene_cost_network.node[10].content_store 	p_hit[10] 	0.096548454658666
scalar abilene_cost_network.node[10].content_store 	hits[10] 	13645
scalar abilene_cost_network.node[10].content_store 	misses[10] 	127683
scalar abilene_cost_network.node[10].content_store 	decision_yes[10] 	1264
scalar abilene_cost_network.node[10].content_store 	decision_no[10] 	126419
scalar abilene_cost_network.node[10].content_store 	decision_ratio[10] 	0.0098995167720057
scalar abilene_cost_network.node[11].core_layer 	interests[11] 	92609
scalar abilene_cost_network.node[11].core_layer 	repo_load[11] 	92609
scalar abilene_cost_network.node[11].core_layer 	data[11] 	0
scalar abilene_cost_network.node[11].content_store 	p_hit[11] 	0
scalar abilene_cost_network.node[11].content_store 	hits[11] 	0
scalar abilene_cost_network.node[11].content_store 	misses[11] 	92609
scalar abilene_cost_network.node[11].content_store 	decision_yes[11] 	0
scalar abilene_cost_network.node[11].content_store 	decision_no[11] 	92609
scalar abilene_cost_network.node[11].content_store 	decision_ratio[11] 	0
scalar abilene_cost_network.node[12].core_layer 	interests[12] 	87434
scalar abilene_cost_network.node[12].core_layer 	repo_load[12] 	87434
scalar abilene_cost_network.node[12].core_layer 	data[12] 	0
scalar abilene_cost_network.node[12].content_store 	p_hit[12] 	0
scalar abilene_cost_network.node[12].content_store 	hits[12] 	0
scalar abilene_cost_network.node[12].content_store 	misses[12] 	87434
scalar abilene_cost_network.node[12].content_store 	decision_yes[12] 	0
scalar abilene_cost_network.node[12].content_store 	decision_no[12] 	87434
scalar abilene_cost_network.node[12].content_store 	decision_ratio[12] 	0
scalar abilene_cost_network.node[13].core_layer 	interests[13] 	93056
scalar abilene_cost_network.node[13].core_layer 	repo_load[13] 	93056
scalar abilene_cost_network.node[13].core_layer 	data[13] 	0
scalar abilene_cost_network.node[13].content_store 	p_hit[13] 	0
scalar abilene_cost_network.node[13].content_store 	hits[13] 	0
scalar abilene_cost_network.node[13].content_store 	misses[13] 	93056
scalar abilene_cost_network.node[13].content_store 	decision_yes[13] 	0
scalar abilene_cost_network.node[13].content_store 	decision_no[13] 	93056
scalar abilene_cost_network.node[13].content_store 	decision_ratio[13] 	0
scalar abilene_cost_network.client[0] 	hdistance[0] 	2.2170875575014
scalar abilene_cost_network.client[0] 	downloads[0] 	180213
scalar abilene_cost_network.client[0] 	avg_time[0] 	0.008918528048
scalar abilene_cost_network.client[0] 	interests_sent[0] 	180249
scalar abilene_cost_network.client[5] 	hdistance[5] 	2.9966418179699
scalar abilene_cost_network.client[5] 	downloads[5] 	180157
scalar abilene_cost_network.client[5] 	avg_time[5] 	0.010755973398
scalar abilene_cost_network.client[5] 	interests_sent[5] 	180183
scalar abilene_cost_network.client[9] 	hdistance[9] 	2.0102749670531
scalar abilene_cost_network.client[9] 	downloads[9] 	179076
scalar abilene_cost_network.client[9] 	avg_time[9] 	0.00762345378
scalar abilene_cost_network.client[9] 	interests_sent[9] 	179100
