version 2
run General-62-20140627-19:57:15-22901
attr D fix0.01
attr F spr
attr R lru
attr a 1
attr configname General
attr csize 1e3
attr ctlg 1e5
attr datetime 20140627-19:57:15
attr experiment General
attr inifile omnetpp.ini
attr iterationvars "$net=abilene_cost, $rep=17, $priceratiovalue=10, $weights=0.333_0.333_0.334, $lambda=100, $a=1, $ctlg=1e5, $F=spr, $ttl=1000, $D=fix0.01, $xi=1, $R=lru, $csize=1e3, $pricebits=0, $window=60, $variance=0.05, $mytime=1800"
attr iterationvars2 "$net=abilene_cost, $rep=17, $priceratiovalue=10, $weights=0.333_0.333_0.334, $lambda=100, $a=1, $ctlg=1e5, $F=spr, $ttl=1000, $D=fix0.01, $xi=1, $R=lru, $csize=1e3, $pricebits=0, $window=60, $variance=0.05, $mytime=1800, $repetition=0"
attr lambda 100
attr measurement "$net=abilene_cost, $rep=17, $priceratiovalue=10, $weights=0.333_0.333_0.334, $lambda=100, $a=1, $ctlg=1e5, $F=spr, $ttl=1000, $D=fix0.01, $xi=1, $R=lru, $csize=1e3, $pricebits=0, $window=60, $variance=0.05, $mytime=1800"
attr mytime 1800
attr net abilene_cost
attr network "networks.${net=geant_cost, abilene_cost}_network"
attr pricebits 0
attr priceratiovalue 10
attr processid 22901
attr rep 17
attr repetition 0
attr replication #0
attr resultdir results
attr runnumber 62
attr seedset 17
attr ttl 1000
attr variance 0.05
attr weights 0.333_0.333_0.334
attr window 60
attr xi 1

scalar . 	a 	1
scalar . 	csize 	1e3
scalar . 	ctlg 	1e5
scalar . 	lambda 	100
scalar . 	mytime 	1800
scalar . 	pricebits 	0
scalar . 	priceratiovalue 	10
scalar . 	rep 	17
scalar . 	ttl 	1000
scalar . 	variance 	0.05
scalar . 	window 	60
scalar . 	xi 	1
scalar abilene_cost_network.content_distribution 	repo-0 	11
scalar abilene_cost_network.content_distribution 	repo-1 	12
scalar abilene_cost_network.content_distribution 	repo-2 	13
scalar abilene_cost_network.content_distribution 	client-0 	5
scalar abilene_cost_network.content_distribution 	client-1 	0
scalar abilene_cost_network.content_distribution 	client-2 	9
scalar abilene_cost_network.content_distribution 	repo-0_card 	33432
scalar abilene_cost_network.content_distribution 	repo-1_card 	33238
scalar abilene_cost_network.content_distribution 	repo-2_card 	33330
scalar abilene_cost_network.statistics 	repo_popularity[0] 	0.29357061690373
scalar abilene_cost_network.statistics 	repo_popularity[1] 	0.31455664157995
scalar abilene_cost_network.statistics 	repo_popularity[2] 	0.39187274151631
scalar abilene_cost_network.statistics 	stabilization_time 	427.6
scalar abilene_cost_network.node[1].face$o[4].channel 	price[1] 	0
scalar abilene_cost_network.node[1].face$o[4].channel 	represented_price[1] 	0
scalar abilene_cost_network.node[7].face$o[4].channel 	price[7] 	0
scalar abilene_cost_network.node[7].face$o[4].channel 	represented_price[7] 	0
scalar abilene_cost_network.node[10].face$o[4].channel 	price[10] 	0
scalar abilene_cost_network.node[10].face$o[4].channel 	represented_price[10] 	0
scalar abilene_cost_network.node[11].face$o[1].channel 	price[11] 	0
scalar abilene_cost_network.node[11].face$o[1].channel 	represented_price[11] 	0
scalar abilene_cost_network.node[12].face$o[1].channel 	price[12] 	1
scalar abilene_cost_network.node[12].face$o[1].channel 	represented_price[12] 	1
scalar abilene_cost_network.node[13].face$o[1].channel 	price[13] 	10
scalar abilene_cost_network.node[13].face$o[1].channel 	represented_price[13] 	10
scalar abilene_cost_network.statistics 	p_hit 	0.1709382570023
scalar abilene_cost_network.statistics 	interests 	111960.64285714
scalar abilene_cost_network.statistics 	data 	73396.857142857
scalar abilene_cost_network.statistics 	hdistance 	2.4076094824349
scalar abilene_cost_network.statistics 	avg_time 	0.009172965157
scalar abilene_cost_network.statistics 	downloads 	539801
scalar abilene_cost_network.statistics 	total_cost 	1025262
scalar abilene_cost_network.statistics 	total_replicas 	100000
scalar abilene_cost_network.statistics 	inner_hit 	0.49636069588608
scalar abilene_cost_network.statistics 	interests_sent 	539891
scalar abilene_cost_network.node[0].core_layer 	interests[0] 	180641
scalar abilene_cost_network.node[0].core_layer 	data[0] 	110309
scalar abilene_cost_network.node[0].core_layer 	repo_int[0] 	271865
scalar abilene_cost_network.node[0].content_store 	p_hit[0] 	0.38921396582171
scalar abilene_cost_network.node[0].content_store 	hits[0] 	70308
scalar abilene_cost_network.node[0].content_store 	misses[0] 	110333
scalar abilene_cost_network.node[0].content_store 	decision_yes[0] 	1105
scalar abilene_cost_network.node[0].content_store 	decision_no[0] 	109204
scalar abilene_cost_network.node[0].content_store 	decision_ratio[0] 	0.010017314996963
scalar abilene_cost_network.node[1].core_layer 	interests[1] 	171965
scalar abilene_cost_network.node[1].core_layer 	data[1] 	160075
scalar abilene_cost_network.node[1].content_store 	p_hit[1] 	0.0691477917018
scalar abilene_cost_network.node[1].content_store 	hits[1] 	11891
scalar abilene_cost_network.node[1].content_store 	misses[1] 	160074
scalar abilene_cost_network.node[1].content_store 	decision_yes[1] 	1603
scalar abilene_cost_network.node[1].content_store 	decision_no[1] 	158472
scalar abilene_cost_network.node[1].content_store 	decision_ratio[1] 	0.010014055911292
scalar abilene_cost_network.node[2].core_layer 	interests[2] 	99410
scalar abilene_cost_network.node[2].core_layer 	data[2] 	95647
scalar abilene_cost_network.node[2].content_store 	p_hit[2] 	0.03785333467458
scalar abilene_cost_network.node[2].content_store 	hits[2] 	3763
scalar abilene_cost_network.node[2].content_store 	misses[2] 	95647
scalar abilene_cost_network.node[2].content_store 	decision_yes[2] 	920
scalar abilene_cost_network.node[2].content_store 	decision_no[2] 	94727
scalar abilene_cost_network.node[2].content_store 	decision_ratio[2] 	0.0096187021025228
scalar abilene_cost_network.node[3].core_layer 	interests[3] 	100454
scalar abilene_cost_network.node[3].core_layer 	data[3] 	96025
scalar abilene_cost_network.node[3].content_store 	p_hit[3] 	0.0440798773568
scalar abilene_cost_network.node[3].content_store 	hits[3] 	4428
scalar abilene_cost_network.node[3].content_store 	misses[3] 	96026
scalar abilene_cost_network.node[3].content_store 	decision_yes[3] 	980
scalar abilene_cost_network.node[3].content_store 	decision_no[3] 	95045
scalar abilene_cost_network.node[3].content_store 	decision_ratio[3] 	0.010205675605311
scalar abilene_cost_network.node[4].core_layer 	interests[4] 	69922
scalar abilene_cost_network.node[4].core_layer 	data[4] 	65067
scalar abilene_cost_network.node[4].content_store 	p_hit[4] 	0.06942021109236
scalar abilene_cost_network.node[4].content_store 	hits[4] 	4854
scalar abilene_cost_network.node[4].content_store 	misses[4] 	65068
scalar abilene_cost_network.node[4].content_store 	decision_yes[4] 	643
scalar abilene_cost_network.node[4].content_store 	decision_no[4] 	64424
scalar abilene_cost_network.node[4].content_store 	decision_ratio[4] 	0.0098821215055251
scalar abilene_cost_network.node[5].core_layer 	interests[5] 	179586
scalar abilene_cost_network.node[5].core_layer 	data[5] 	109726
scalar abilene_cost_network.node[5].content_store 	p_hit[5] 	0.38880536344704
scalar abilene_cost_network.node[5].content_store 	hits[5] 	69824
scalar abilene_cost_network.node[5].content_store 	misses[5] 	109762
scalar abilene_cost_network.node[5].content_store 	decision_yes[5] 	1115
scalar abilene_cost_network.node[5].content_store 	decision_no[5] 	108611
scalar abilene_cost_network.node[5].content_store 	decision_ratio[5] 	0.010161675446111
scalar abilene_cost_network.node[6].core_layer 	interests[6] 	39805
scalar abilene_cost_network.node[6].core_layer 	data[6] 	33899
scalar abilene_cost_network.node[6].content_store 	p_hit[6] 	0.14837331993468
scalar abilene_cost_network.node[6].content_store 	hits[6] 	5906
scalar abilene_cost_network.node[6].content_store 	misses[6] 	33899
scalar abilene_cost_network.node[6].content_store 	decision_yes[6] 	331
scalar abilene_cost_network.node[6].content_store 	decision_no[6] 	33568
scalar abilene_cost_network.node[6].content_store 	decision_ratio[6] 	0.0097642998318534
scalar abilene_cost_network.node[7].core_layer 	interests[7] 	101230
scalar abilene_cost_network.node[7].core_layer 	data[7] 	91072
scalar abilene_cost_network.node[7].content_store 	p_hit[7] 	0.10034574730811
scalar abilene_cost_network.node[7].content_store 	hits[7] 	10158
scalar abilene_cost_network.node[7].content_store 	misses[7] 	91072
scalar abilene_cost_network.node[7].content_store 	decision_yes[7] 	962
scalar abilene_cost_network.node[7].content_store 	decision_no[7] 	90110
scalar abilene_cost_network.node[7].content_store 	decision_ratio[7] 	0.01056307097681
scalar abilene_cost_network.node[8].core_layer 	interests[8] 	38733
scalar abilene_cost_network.node[8].core_layer 	data[8] 	33508
scalar abilene_cost_network.node[8].content_store 	p_hit[8] 	0.13489789068753
scalar abilene_cost_network.node[8].content_store 	hits[8] 	5225
scalar abilene_cost_network.node[8].content_store 	misses[8] 	33508
scalar abilene_cost_network.node[8].content_store 	decision_yes[8] 	322
scalar abilene_cost_network.node[8].content_store 	decision_no[8] 	33186
scalar abilene_cost_network.node[8].content_store 	decision_ratio[8] 	0.0096096454578011
scalar abilene_cost_network.node[9].core_layer 	interests[9] 	179664
scalar abilene_cost_network.node[9].core_layer 	data[9] 	109748
scalar abilene_cost_network.node[9].content_store 	p_hit[9] 	0.38898165464422
scalar abilene_cost_network.node[9].content_store 	hits[9] 	69886
scalar abilene_cost_network.node[9].content_store 	misses[9] 	109778
scalar abilene_cost_network.node[9].content_store 	decision_yes[9] 	1093
scalar abilene_cost_network.node[9].content_store 	decision_no[9] 	108655
scalar abilene_cost_network.node[9].content_store 	decision_ratio[9] 	0.0099591792105551
scalar abilene_cost_network.node[10].core_layer 	interests[10] 	134174
scalar abilene_cost_network.node[10].core_layer 	data[10] 	122480
scalar abilene_cost_network.node[10].content_store 	p_hit[10] 	0.087155484669161
scalar abilene_cost_network.node[10].content_store 	hits[10] 	11694
scalar abilene_cost_network.node[10].content_store 	misses[10] 	122480
scalar abilene_cost_network.node[10].content_store 	decision_yes[10] 	1202
scalar abilene_cost_network.node[10].content_store 	decision_no[10] 	121278
scalar abilene_cost_network.node[10].content_store 	decision_ratio[10] 	0.0098138471587198
scalar abilene_cost_network.node[11].core_layer 	interests[11] 	87374
scalar abilene_cost_network.node[11].core_layer 	repo_load[11] 	87374
scalar abilene_cost_network.node[11].core_layer 	data[11] 	0
scalar abilene_cost_network.node[11].content_store 	p_hit[11] 	0
scalar abilene_cost_network.node[11].content_store 	hits[11] 	0
scalar abilene_cost_network.node[11].content_store 	misses[11] 	87374
scalar abilene_cost_network.node[11].content_store 	decision_yes[11] 	0
scalar abilene_cost_network.node[11].content_store 	decision_no[11] 	87374
scalar abilene_cost_network.node[11].content_store 	decision_ratio[11] 	0
scalar abilene_cost_network.node[12].core_layer 	interests[12] 	91072
scalar abilene_cost_network.node[12].core_layer 	repo_load[12] 	91072
scalar abilene_cost_network.node[12].core_layer 	data[12] 	0
scalar abilene_cost_network.node[12].content_store 	p_hit[12] 	0
scalar abilene_cost_network.node[12].content_store 	hits[12] 	0
scalar abilene_cost_network.node[12].content_store 	misses[12] 	91072
scalar abilene_cost_network.node[12].content_store 	decision_yes[12] 	0
scalar abilene_cost_network.node[12].content_store 	decision_no[12] 	91072
scalar abilene_cost_network.node[12].content_store 	decision_ratio[12] 	0
scalar abilene_cost_network.node[13].core_layer 	interests[13] 	93419
scalar abilene_cost_network.node[13].core_layer 	repo_load[13] 	93419
scalar abilene_cost_network.node[13].core_layer 	data[13] 	0
scalar abilene_cost_network.node[13].content_store 	p_hit[13] 	0
scalar abilene_cost_network.node[13].content_store 	hits[13] 	0
scalar abilene_cost_network.node[13].content_store 	misses[13] 	93419
scalar abilene_cost_network.node[13].content_store 	decision_yes[13] 	0
scalar abilene_cost_network.node[13].content_store 	decision_no[13] 	93419
scalar abilene_cost_network.node[13].content_store 	decision_ratio[13] 	0
scalar abilene_cost_network.client[0] 	hdistance[0] 	2.2403151419855
scalar abilene_cost_network.client[0] 	downloads[0] 	180617
scalar abilene_cost_network.client[0] 	avg_time[0] 	0.009111868918
scalar abilene_cost_network.client[0] 	interests_sent[0] 	180641
scalar abilene_cost_network.client[5] 	hdistance[5] 	2.9737510442774
scalar abilene_cost_network.client[5] 	downloads[5] 	179550
scalar abilene_cost_network.client[5] 	avg_time[5] 	0.010536052269
scalar abilene_cost_network.client[5] 	interests_sent[5] 	179586
scalar abilene_cost_network.client[9] 	hdistance[9] 	2.0087622610419
scalar abilene_cost_network.client[9] 	downloads[9] 	179634
scalar abilene_cost_network.client[9] 	avg_time[9] 	0.007870974284
scalar abilene_cost_network.client[9] 	interests_sent[9] 	179664
