version 2
run General-22-20140626-16:56:05-7525
attr D fix0.01
attr F spr
attr R lru
attr a 1
attr configname General
attr csize 1e3
attr ctlg 1e5
attr datetime 20140626-16:56:05
attr experiment General
attr inifile omnetpp.ini
attr iterationvars "$net=abilene_cost, $rep=9, $priceratiovalue=10, $weights=0.333_0.333_0.334, $lambda=100, $a=1, $ctlg=1e5, $F=spr, $ttl=1000, $D=fix0.01, $xi=1, $R=lru, $csize=1e3, $pricebits=0, $mytime=1800"
attr iterationvars2 "$net=abilene_cost, $rep=9, $priceratiovalue=10, $weights=0.333_0.333_0.334, $lambda=100, $a=1, $ctlg=1e5, $F=spr, $ttl=1000, $D=fix0.01, $xi=1, $R=lru, $csize=1e3, $pricebits=0, $mytime=1800, $repetition=0"
attr lambda 100
attr measurement "$net=abilene_cost, $rep=9, $priceratiovalue=10, $weights=0.333_0.333_0.334, $lambda=100, $a=1, $ctlg=1e5, $F=spr, $ttl=1000, $D=fix0.01, $xi=1, $R=lru, $csize=1e3, $pricebits=0, $mytime=1800"
attr mytime 1800
attr net abilene_cost
attr network "networks.${net=geant_cost, abilene_cost}_network"
attr pricebits 0
attr priceratiovalue 10
attr processid 7525
attr rep 9
attr repetition 0
attr replication #0
attr resultdir results
attr runnumber 22
attr seedset 9
attr ttl 1000
attr weights 0.333_0.333_0.334
attr xi 1

scalar . 	a 	1
scalar . 	csize 	1e3
scalar . 	ctlg 	1e5
scalar . 	lambda 	100
scalar . 	mytime 	1800
scalar . 	pricebits 	0
scalar . 	priceratiovalue 	10
scalar . 	rep 	9
scalar . 	ttl 	1000
scalar . 	xi 	1
scalar abilene_cost_network.content_distribution 	repo-0 	11
scalar abilene_cost_network.content_distribution 	repo-1 	12
scalar abilene_cost_network.content_distribution 	repo-2 	13
scalar abilene_cost_network.content_distribution 	client-0 	5
scalar abilene_cost_network.content_distribution 	client-1 	0
scalar abilene_cost_network.content_distribution 	client-2 	9
scalar abilene_cost_network.content_distribution 	repo-0_card 	33407
scalar abilene_cost_network.content_distribution 	repo-1_card 	33169
scalar abilene_cost_network.content_distribution 	repo-2_card 	33424
scalar abilene_cost_network.statistics 	repo_popularity[0] 	0.34242359259278
scalar abilene_cost_network.statistics 	repo_popularity[1] 	0.29137742219581
scalar abilene_cost_network.statistics 	repo_popularity[2] 	0.36619898521141
scalar abilene_cost_network.statistics 	stabilization_time 	538.7
scalar abilene_cost_network.node[1].face$o[4].channel 	price[1] 	0
scalar abilene_cost_network.node[1].face$o[4].channel 	represented_price[1] 	0
scalar abilene_cost_network.node[7].face$o[4].channel 	price[7] 	0
scalar abilene_cost_network.node[7].face$o[4].channel 	represented_price[7] 	0
scalar abilene_cost_network.node[10].face$o[4].channel 	price[10] 	0
scalar abilene_cost_network.node[10].face$o[4].channel 	represented_price[10] 	0
scalar abilene_cost_network.node[11].face$o[1].channel 	price[11] 	0
scalar abilene_cost_network.node[11].face$o[1].channel 	represented_price[11] 	0
scalar abilene_cost_network.node[12].face$o[1].channel 	price[12] 	1
scalar abilene_cost_network.node[12].face$o[1].channel 	represented_price[12] 	1
scalar abilene_cost_network.node[13].face$o[1].channel 	price[13] 	10
scalar abilene_cost_network.node[13].face$o[1].channel 	represented_price[13] 	10
scalar abilene_cost_network.statistics 	p_hit 	0.17107738273233
scalar abilene_cost_network.statistics 	interests 	111789.42857143
scalar abilene_cost_network.statistics 	data 	73206.428571429
scalar abilene_cost_network.statistics 	hdistance 	2.4026718102785
scalar abilene_cost_network.statistics 	avg_time 	0.009088526435
scalar abilene_cost_network.statistics 	downloads 	540086
scalar abilene_cost_network.statistics 	total_cost 	1025079
scalar abilene_cost_network.statistics 	total_replicas 	100000
scalar abilene_cost_network.statistics 	inner_hit 	0.49574697363013
scalar abilene_cost_network.statistics 	interests_sent 	540167
scalar abilene_cost_network.node[0].core_layer 	interests[0] 	179698
scalar abilene_cost_network.node[0].core_layer 	data[0] 	109214
scalar abilene_cost_network.node[0].core_layer 	repo_int[0] 	272340
scalar abilene_cost_network.node[0].content_store 	p_hit[0] 	0.39208561030173
scalar abilene_cost_network.node[0].content_store 	hits[0] 	70457
scalar abilene_cost_network.node[0].content_store 	misses[0] 	109241
scalar abilene_cost_network.node[0].content_store 	decision_yes[0] 	1064
scalar abilene_cost_network.node[0].content_store 	decision_no[0] 	108150
scalar abilene_cost_network.node[0].content_store 	decision_ratio[0] 	0.009742340725548
scalar abilene_cost_network.node[1].core_layer 	interests[1] 	170997
scalar abilene_cost_network.node[1].core_layer 	data[1] 	159807
scalar abilene_cost_network.node[1].content_store 	p_hit[1] 	0.065445592612736
scalar abilene_cost_network.node[1].content_store 	hits[1] 	11191
scalar abilene_cost_network.node[1].content_store 	misses[1] 	159806
scalar abilene_cost_network.node[1].content_store 	decision_yes[1] 	1643
scalar abilene_cost_network.node[1].content_store 	decision_no[1] 	158164
scalar abilene_cost_network.node[1].content_store 	decision_ratio[1] 	0.010281151639165
scalar abilene_cost_network.node[2].core_layer 	interests[2] 	99396
scalar abilene_cost_network.node[2].core_layer 	data[2] 	95060
scalar abilene_cost_network.node[2].content_store 	p_hit[2] 	0.043633546621594
scalar abilene_cost_network.node[2].content_store 	hits[2] 	4337
scalar abilene_cost_network.node[2].content_store 	misses[2] 	95059
scalar abilene_cost_network.node[2].content_store 	decision_yes[2] 	950
scalar abilene_cost_network.node[2].content_store 	decision_no[2] 	94110
scalar abilene_cost_network.node[2].content_store 	decision_ratio[2] 	0.0099936881969283
scalar abilene_cost_network.node[3].core_layer 	interests[3] 	100525
scalar abilene_cost_network.node[3].core_layer 	data[3] 	95973
scalar abilene_cost_network.node[3].content_store 	p_hit[3] 	0.0452922158667
scalar abilene_cost_network.node[3].content_store 	hits[3] 	4553
scalar abilene_cost_network.node[3].content_store 	misses[3] 	95972
scalar abilene_cost_network.node[3].content_store 	decision_yes[3] 	898
scalar abilene_cost_network.node[3].content_store 	decision_no[3] 	95075
scalar abilene_cost_network.node[3].content_store 	decision_ratio[3] 	0.009356798266179
scalar abilene_cost_network.node[4].core_layer 	interests[4] 	73883
scalar abilene_cost_network.node[4].core_layer 	data[4] 	67715
scalar abilene_cost_network.node[4].content_store 	p_hit[4] 	0.083496880202482
scalar abilene_cost_network.node[4].content_store 	hits[4] 	6169
scalar abilene_cost_network.node[4].content_store 	misses[4] 	67714
scalar abilene_cost_network.node[4].content_store 	decision_yes[4] 	671
scalar abilene_cost_network.node[4].content_store 	decision_no[4] 	67044
scalar abilene_cost_network.node[4].content_store 	decision_ratio[4] 	0.009909178173226
scalar abilene_cost_network.node[5].core_layer 	interests[5] 	179718
scalar abilene_cost_network.node[5].core_layer 	data[5] 	109763
scalar abilene_cost_network.node[5].content_store 	p_hit[5] 	0.38909291222916
scalar abilene_cost_network.node[5].content_store 	hits[5] 	69927
scalar abilene_cost_network.node[5].content_store 	misses[5] 	109791
scalar abilene_cost_network.node[5].content_store 	decision_yes[5] 	1117
scalar abilene_cost_network.node[5].content_store 	decision_no[5] 	108646
scalar abilene_cost_network.node[5].content_store 	decision_ratio[5] 	0.010176471124149
scalar abilene_cost_network.node[6].core_layer 	interests[6] 	35879
scalar abilene_cost_network.node[6].core_layer 	data[6] 	31878
scalar abilene_cost_network.node[6].content_store 	p_hit[6] 	0.11151369882104
scalar abilene_cost_network.node[6].content_store 	hits[6] 	4001
scalar abilene_cost_network.node[6].content_store 	misses[6] 	31878
scalar abilene_cost_network.node[6].content_store 	decision_yes[6] 	305
scalar abilene_cost_network.node[6].content_store 	decision_no[6] 	31573
scalar abilene_cost_network.node[6].content_store 	decision_ratio[6] 	0.0095677269590313
scalar abilene_cost_network.node[7].core_layer 	interests[7] 	94709
scalar abilene_cost_network.node[7].core_layer 	data[7] 	86609
scalar abilene_cost_network.node[7].content_store 	p_hit[7] 	0.085525134886864
scalar abilene_cost_network.node[7].content_store 	hits[7] 	8100
scalar abilene_cost_network.node[7].content_store 	misses[7] 	86609
scalar abilene_cost_network.node[7].content_store 	decision_yes[7] 	941
scalar abilene_cost_network.node[7].content_store 	decision_no[7] 	85668
scalar abilene_cost_network.node[7].content_store 	decision_ratio[7] 	0.010864921659412
scalar abilene_cost_network.node[8].core_layer 	interests[8] 	36081
scalar abilene_cost_network.node[8].core_layer 	data[8] 	31304
scalar abilene_cost_network.node[8].content_store 	p_hit[8] 	0.13239655220199
scalar abilene_cost_network.node[8].content_store 	hits[8] 	4777
scalar abilene_cost_network.node[8].content_store 	misses[8] 	31304
scalar abilene_cost_network.node[8].content_store 	decision_yes[8] 	307
scalar abilene_cost_network.node[8].content_store 	decision_no[8] 	30997
scalar abilene_cost_network.node[8].content_store 	decision_ratio[8] 	0.0098070534117046
scalar abilene_cost_network.node[9].core_layer 	interests[9] 	180751
scalar abilene_cost_network.node[9].core_layer 	data[9] 	110176
scalar abilene_cost_network.node[9].content_store 	p_hit[9] 	0.39031042705158
scalar abilene_cost_network.node[9].content_store 	hits[9] 	70549
scalar abilene_cost_network.node[9].content_store 	misses[9] 	110202
scalar abilene_cost_network.node[9].content_store 	decision_yes[9] 	1102
scalar abilene_cost_network.node[9].content_store 	decision_no[9] 	109074
scalar abilene_cost_network.node[9].content_store 	decision_ratio[9] 	0.010002178332849
scalar abilene_cost_network.node[10].core_layer 	interests[10] 	141075
scalar abilene_cost_network.node[10].core_layer 	data[10] 	127391
scalar abilene_cost_network.node[10].content_store 	p_hit[10] 	0.096998050682261
scalar abilene_cost_network.node[10].content_store 	hits[10] 	13684
scalar abilene_cost_network.node[10].content_store 	misses[10] 	127391
scalar abilene_cost_network.node[10].content_store 	decision_yes[10] 	1252
scalar abilene_cost_network.node[10].content_store 	decision_no[10] 	126139
scalar abilene_cost_network.node[10].content_store 	decision_ratio[10] 	0.0098280098280098
scalar abilene_cost_network.node[11].core_layer 	interests[11] 	91884
scalar abilene_cost_network.node[11].core_layer 	repo_load[11] 	91884
scalar abilene_cost_network.node[11].core_layer 	data[11] 	0
scalar abilene_cost_network.node[11].content_store 	p_hit[11] 	0
scalar abilene_cost_network.node[11].content_store 	hits[11] 	0
scalar abilene_cost_network.node[11].content_store 	misses[11] 	91884
scalar abilene_cost_network.node[11].content_store 	decision_yes[11] 	0
scalar abilene_cost_network.node[11].content_store 	decision_no[11] 	91884
scalar abilene_cost_network.node[11].content_store 	decision_ratio[11] 	0
scalar abilene_cost_network.node[12].core_layer 	interests[12] 	86609
scalar abilene_cost_network.node[12].core_layer 	repo_load[12] 	86609
scalar abilene_cost_network.node[12].core_layer 	data[12] 	0
scalar abilene_cost_network.node[12].content_store 	p_hit[12] 	0
scalar abilene_cost_network.node[12].content_store 	hits[12] 	0
scalar abilene_cost_network.node[12].content_store 	misses[12] 	86609
scalar abilene_cost_network.node[12].content_store 	decision_yes[12] 	0
scalar abilene_cost_network.node[12].content_store 	decision_no[12] 	86609
scalar abilene_cost_network.node[12].content_store 	decision_ratio[12] 	0
scalar abilene_cost_network.node[13].core_layer 	interests[13] 	93847
scalar abilene_cost_network.node[13].core_layer 	repo_load[13] 	93847
scalar abilene_cost_network.node[13].core_layer 	data[13] 	0
scalar abilene_cost_network.node[13].content_store 	p_hit[13] 	0
scalar abilene_cost_network.node[13].content_store 	hits[13] 	0
scalar abilene_cost_network.node[13].content_store 	misses[13] 	93847
scalar abilene_cost_network.node[13].content_store 	decision_yes[13] 	0
scalar abilene_cost_network.node[13].content_store 	decision_no[13] 	93847
scalar abilene_cost_network.node[13].content_store 	decision_ratio[13] 	0
scalar abilene_cost_network.client[0] 	hdistance[0] 	2.1981566307306
scalar abilene_cost_network.client[0] 	downloads[0] 	179671
scalar abilene_cost_network.client[0] 	avg_time[0] 	0.008847116859
scalar abilene_cost_network.client[0] 	interests_sent[0] 	179698
scalar abilene_cost_network.client[5] 	hdistance[5] 	3.0132672936724
scalar abilene_cost_network.client[5] 	downloads[5] 	179690
scalar abilene_cost_network.client[5] 	avg_time[5] 	0.010823589259
scalar abilene_cost_network.client[5] 	interests_sent[5] 	179718
scalar abilene_cost_network.client[9] 	hdistance[9] 	1.9965915064324
scalar abilene_cost_network.client[9] 	downloads[9] 	180725
scalar abilene_cost_network.client[9] 	avg_time[9] 	0.007594873188
scalar abilene_cost_network.client[9] 	interests_sent[9] 	180751
