version 2
run General-3-20140512-16:42:20-30055
attr D costprobprodcorr0.01
attr F spr
attr R lru
attr a 1
attr configname General
attr csize 1e3
attr ctlg 1e5
attr datetime 20140512-16:42:20
attr experiment General
attr inifile omnetpp.ini
attr iterationvars "$net=abilene_cost, $rep=1, $priceratiovalue=10, $weights=0.333_0.333_0.334, $a=1, $ctlg=1e5, $F=spr, $ttl=1000, $D=costprobprodcorr0.01, $xi=0.75, $R=lru, $csize=1e3"
attr iterationvars2 "$net=abilene_cost, $rep=1, $priceratiovalue=10, $weights=0.333_0.333_0.334, $a=1, $ctlg=1e5, $F=spr, $ttl=1000, $D=costprobprodcorr0.01, $xi=0.75, $R=lru, $csize=1e3, $repetition=0"
attr measurement "$net=abilene_cost, $rep=1, $priceratiovalue=10, $weights=0.333_0.333_0.334, $a=1, $ctlg=1e5, $F=spr, $ttl=1000, $D=costprobprodcorr0.01, $xi=0.75, $R=lru, $csize=1e3"
attr net abilene_cost
attr network networks.${net=abilene_cost}_network
attr priceratiovalue 10
attr processid 30055
attr rep 1
attr repetition 0
attr replication #0
attr resultdir results
attr runnumber 3
attr seedset 1
attr ttl 1000
attr weights 0.333_0.333_0.334
attr xi 0.75

scalar . 	a 	1
scalar . 	csize 	1e3
scalar . 	ctlg 	1e5
scalar . 	priceratiovalue 	10
scalar . 	rep 	1
scalar . 	ttl 	1000
scalar . 	xi 	0.75
scalar abilene_cost_network.content_distribution 	repo-0 	11
scalar abilene_cost_network.content_distribution 	repo-1 	12
scalar abilene_cost_network.content_distribution 	repo-2 	13
scalar abilene_cost_network.content_distribution 	client-0 	3
scalar abilene_cost_network.content_distribution 	client-1 	7
scalar abilene_cost_network.content_distribution 	client-2 	10
scalar abilene_cost_network.content_distribution 	repo-0_card 	33396
scalar abilene_cost_network.content_distribution 	repo-1_card 	33039
scalar abilene_cost_network.content_distribution 	repo-2_card 	33565
scalar abilene_cost_network.statistics 	p_hit 	0.11001783188651
scalar abilene_cost_network.statistics 	interests 	144083.78571429
scalar abilene_cost_network.statistics 	data 	105580.14285714
scalar abilene_cost_network.statistics 	hdistance 	3.3305329676275
scalar abilene_cost_network.statistics 	avg_time 	0
scalar abilene_cost_network.statistics 	downloads 	539051
scalar abilene_cost_network.statistics 	total_cost 	935310
scalar abilene_cost_network.statistics 	total_replicas 	100000
scalar abilene_cost_network.statistics 	interests_sent 	539051
scalar abilene_cost_network.node[0].core_layer 	interests[0] 	153773
scalar abilene_cost_network.node[0].core_layer 	data[0] 	153773
scalar abilene_cost_network.node[0].core_layer 	repo_int[0] 	317126
scalar abilene_cost_network.node[0].content_store 	p_hit[0] 	0
scalar abilene_cost_network.node[0].content_store 	hits[0] 	0
scalar abilene_cost_network.node[0].content_store 	misses[0] 	153773
scalar abilene_cost_network.node[0].content_store 	decision_yes[0] 	0
scalar abilene_cost_network.node[0].content_store 	decision_no[0] 	153773
scalar abilene_cost_network.node[0].content_store 	decision_ratio[0] 	0
scalar abilene_cost_network.node[0].content_store 	correction_factor[0] 	0.0045223903011929
scalar abilene_cost_network.node[0].content_store 	xi[0] 	0.75
scalar abilene_cost_network.node[1].core_layer 	interests[1] 	102519
scalar abilene_cost_network.node[1].core_layer 	data[1] 	98208
scalar abilene_cost_network.node[1].content_store 	p_hit[1] 	0.042050741813713
scalar abilene_cost_network.node[1].content_store 	hits[1] 	4311
scalar abilene_cost_network.node[1].content_store 	misses[1] 	98208
scalar abilene_cost_network.node[1].content_store 	decision_yes[1] 	105
scalar abilene_cost_network.node[1].content_store 	decision_no[1] 	98103
scalar abilene_cost_network.node[1].content_store 	decision_ratio[1] 	0.0010691593352884
scalar abilene_cost_network.node[1].content_store 	correction_factor[1] 	0.0045223903011929
scalar abilene_cost_network.node[1].content_store 	xi[1] 	0.75
scalar abilene_cost_network.node[2].core_layer 	interests[2] 	98208
scalar abilene_cost_network.node[2].core_layer 	data[2] 	88871
scalar abilene_cost_network.node[2].content_store 	p_hit[2] 	0.095073721081786
scalar abilene_cost_network.node[2].content_store 	hits[2] 	9337
scalar abilene_cost_network.node[2].content_store 	misses[2] 	88871
scalar abilene_cost_network.node[2].content_store 	decision_yes[2] 	103
scalar abilene_cost_network.node[2].content_store 	decision_no[2] 	88768
scalar abilene_cost_network.node[2].content_store 	decision_ratio[2] 	0.0011589832453781
scalar abilene_cost_network.node[2].content_store 	correction_factor[2] 	0.0045223903011929
scalar abilene_cost_network.node[2].content_store 	xi[2] 	0.75
scalar abilene_cost_network.node[3].core_layer 	interests[3] 	217454
scalar abilene_cost_network.node[3].core_layer 	data[3] 	206496
scalar abilene_cost_network.node[3].content_store 	p_hit[3] 	0.050392266870235
scalar abilene_cost_network.node[3].content_store 	hits[3] 	10958
scalar abilene_cost_network.node[3].content_store 	misses[3] 	206496
scalar abilene_cost_network.node[3].content_store 	decision_yes[3] 	896
scalar abilene_cost_network.node[3].content_store 	decision_no[3] 	205600
scalar abilene_cost_network.node[3].content_store 	decision_ratio[3] 	0.0043390671005734
scalar abilene_cost_network.node[3].content_store 	correction_factor[3] 	0.0045223903011929
scalar abilene_cost_network.node[3].content_store 	xi[3] 	0.75
scalar abilene_cost_network.node[4].core_layer 	interests[4] 	83812
scalar abilene_cost_network.node[4].core_layer 	data[4] 	63399
scalar abilene_cost_network.node[4].content_store 	p_hit[4] 	0.24355700854293
scalar abilene_cost_network.node[4].content_store 	hits[4] 	20413
scalar abilene_cost_network.node[4].content_store 	misses[4] 	63399
scalar abilene_cost_network.node[4].content_store 	decision_yes[4] 	224
scalar abilene_cost_network.node[4].content_store 	decision_no[4] 	63175
scalar abilene_cost_network.node[4].content_store 	decision_ratio[4] 	0.0035331787567627
scalar abilene_cost_network.node[4].content_store 	correction_factor[4] 	0.0045223903011929
scalar abilene_cost_network.node[4].content_store 	xi[4] 	0.75
scalar abilene_cost_network.node[5].core_layer 	interests[5] 	100867
scalar abilene_cost_network.node[5].core_layer 	data[5] 	77580
scalar abilene_cost_network.node[5].content_store 	p_hit[5] 	0.23086837122151
scalar abilene_cost_network.node[5].content_store 	hits[5] 	23287
scalar abilene_cost_network.node[5].content_store 	misses[5] 	77580
scalar abilene_cost_network.node[5].content_store 	decision_yes[5] 	330
scalar abilene_cost_network.node[5].content_store 	decision_no[5] 	77250
scalar abilene_cost_network.node[5].content_store 	decision_ratio[5] 	0.0042536736272235
scalar abilene_cost_network.node[5].content_store 	correction_factor[5] 	0.0045223903011929
scalar abilene_cost_network.node[5].content_store 	xi[5] 	0.75
scalar abilene_cost_network.node[6].core_layer 	interests[6] 	46263
scalar abilene_cost_network.node[6].core_layer 	data[6] 	37468
scalar abilene_cost_network.node[6].content_store 	p_hit[6] 	0.19010872619588
scalar abilene_cost_network.node[6].content_store 	hits[6] 	8795
scalar abilene_cost_network.node[6].content_store 	misses[6] 	37468
scalar abilene_cost_network.node[6].content_store 	decision_yes[6] 	110
scalar abilene_cost_network.node[6].content_store 	decision_no[6] 	37358
scalar abilene_cost_network.node[6].content_store 	decision_ratio[6] 	0.0029358385822569
scalar abilene_cost_network.node[6].content_store 	correction_factor[6] 	0.0045223903011929
scalar abilene_cost_network.node[6].content_store 	xi[6] 	0.75
scalar abilene_cost_network.node[7].core_layer 	interests[7] 	250933
scalar abilene_cost_network.node[7].core_layer 	data[7] 	229243
scalar abilene_cost_network.node[7].content_store 	p_hit[7] 	0.086437415565111
scalar abilene_cost_network.node[7].content_store 	hits[7] 	21690
scalar abilene_cost_network.node[7].content_store 	misses[7] 	229243
scalar abilene_cost_network.node[7].content_store 	decision_yes[7] 	1630
scalar abilene_cost_network.node[7].content_store 	decision_no[7] 	227613
scalar abilene_cost_network.node[7].content_store 	decision_ratio[7] 	0.007110358876825
scalar abilene_cost_network.node[7].content_store 	correction_factor[7] 	0.0045223903011929
scalar abilene_cost_network.node[7].content_store 	xi[7] 	0.75
scalar abilene_cost_network.node[8].core_layer 	interests[8] 	182980
scalar abilene_cost_network.node[8].core_layer 	data[8] 	174736
scalar abilene_cost_network.node[8].content_store 	p_hit[8] 	0.045054104273691
scalar abilene_cost_network.node[8].content_store 	hits[8] 	8244
scalar abilene_cost_network.node[8].content_store 	misses[8] 	174736
scalar abilene_cost_network.node[8].content_store 	decision_yes[8] 	1446
scalar abilene_cost_network.node[8].content_store 	decision_no[8] 	173290
scalar abilene_cost_network.node[8].content_store 	decision_ratio[8] 	0.0082753410859811
scalar abilene_cost_network.node[8].content_store 	correction_factor[8] 	0.0045223903011929
scalar abilene_cost_network.node[8].content_store 	xi[8] 	0.75
scalar abilene_cost_network.node[9].core_layer 	interests[9] 	232243
scalar abilene_cost_network.node[9].core_layer 	data[9] 	136951
scalar abilene_cost_network.node[9].content_store 	p_hit[9] 	0.41031161326714
scalar abilene_cost_network.node[9].content_store 	hits[9] 	95292
scalar abilene_cost_network.node[9].content_store 	misses[9] 	136951
scalar abilene_cost_network.node[9].content_store 	decision_yes[9] 	2103
scalar abilene_cost_network.node[9].content_store 	decision_no[9] 	134848
scalar abilene_cost_network.node[9].content_store 	decision_ratio[9] 	0.015355857204402
scalar abilene_cost_network.node[9].content_store 	correction_factor[9] 	0.0045223903011929
scalar abilene_cost_network.node[9].content_store 	xi[9] 	0.75
scalar abilene_cost_network.node[10].core_layer 	interests[10] 	230995
scalar abilene_cost_network.node[10].core_layer 	data[10] 	211397
scalar abilene_cost_network.node[10].content_store 	p_hit[10] 	0.084841663239464
scalar abilene_cost_network.node[10].content_store 	hits[10] 	19598
scalar abilene_cost_network.node[10].content_store 	misses[10] 	211397
scalar abilene_cost_network.node[10].content_store 	decision_yes[10] 	858
scalar abilene_cost_network.node[10].content_store 	decision_no[10] 	210539
scalar abilene_cost_network.node[10].content_store 	decision_ratio[10] 	0.0040587141728596
scalar abilene_cost_network.node[10].content_store 	correction_factor[10] 	0.0045223903011929
scalar abilene_cost_network.node[10].content_store 	xi[10] 	0.75
scalar abilene_cost_network.node[11].core_layer 	interests[11] 	153773
scalar abilene_cost_network.node[11].core_layer 	repo_load[11] 	153773
scalar abilene_cost_network.node[11].core_layer 	data[11] 	0
scalar abilene_cost_network.node[11].content_store 	p_hit[11] 	0
scalar abilene_cost_network.node[11].content_store 	hits[11] 	0
scalar abilene_cost_network.node[11].content_store 	misses[11] 	153773
scalar abilene_cost_network.node[11].content_store 	decision_yes[11] 	0
scalar abilene_cost_network.node[11].content_store 	decision_no[11] 	153773
scalar abilene_cost_network.node[11].content_store 	decision_ratio[11] 	0
scalar abilene_cost_network.node[12].core_layer 	interests[12] 	77580
scalar abilene_cost_network.node[12].core_layer 	repo_load[12] 	77580
scalar abilene_cost_network.node[12].core_layer 	data[12] 	0
scalar abilene_cost_network.node[12].content_store 	p_hit[12] 	0
scalar abilene_cost_network.node[12].content_store 	hits[12] 	0
scalar abilene_cost_network.node[12].content_store 	misses[12] 	77580
scalar abilene_cost_network.node[12].content_store 	decision_yes[12] 	0
scalar abilene_cost_network.node[12].content_store 	decision_no[12] 	77580
scalar abilene_cost_network.node[12].content_store 	decision_ratio[12] 	0
scalar abilene_cost_network.node[13].core_layer 	interests[13] 	85773
scalar abilene_cost_network.node[13].core_layer 	repo_load[13] 	85773
scalar abilene_cost_network.node[13].core_layer 	data[13] 	0
scalar abilene_cost_network.node[13].content_store 	p_hit[13] 	0
scalar abilene_cost_network.node[13].content_store 	hits[13] 	0
scalar abilene_cost_network.node[13].content_store 	misses[13] 	85773
scalar abilene_cost_network.node[13].content_store 	decision_yes[13] 	0
scalar abilene_cost_network.node[13].content_store 	decision_no[13] 	85773
scalar abilene_cost_network.node[13].content_store 	decision_ratio[13] 	0
scalar abilene_cost_network.client[3] 	hdistance[3] 	3.573799670716
scalar abilene_cost_network.client[3] 	downloads[3] 	179784
scalar abilene_cost_network.client[3] 	avg_time[3] 	0
scalar abilene_cost_network.client[3] 	interests_sent[3] 	179784
scalar abilene_cost_network.client[7] 	hdistance[7] 	3.5242630259125
scalar abilene_cost_network.client[7] 	downloads[7] 	179450
scalar abilene_cost_network.client[7] 	avg_time[7] 	0
scalar abilene_cost_network.client[7] 	interests_sent[7] 	179450
scalar abilene_cost_network.client[10] 	hdistance[10] 	2.8935362062542
scalar abilene_cost_network.client[10] 	downloads[10] 	179817
scalar abilene_cost_network.client[10] 	avg_time[10] 	0
scalar abilene_cost_network.client[10] 	interests_sent[10] 	179817
