version 2
run General-2254-20140502-05:26:25-11201
attr D costprob0.005
attr F nrr
attr R lru
attr a 1
attr configname General
attr csize 1e3
attr ctlg 1e5
attr datetime 20140502-05:26:25
attr experiment General
attr inifile omnetpp.ini
attr iterationvars "$net=three_caches_scenario_3_links, $rep=4, $priceratiovalue=10, $weights=0.7_0.15_0.15, $a=1, $ctlg=1e5, $F=nrr, $ttl=1000, $D=costprob0.005, $xi=1, $R=lru, $csize=1e3"
attr iterationvars2 "$net=three_caches_scenario_3_links, $rep=4, $priceratiovalue=10, $weights=0.7_0.15_0.15, $a=1, $ctlg=1e5, $F=nrr, $ttl=1000, $D=costprob0.005, $xi=1, $R=lru, $csize=1e3, $repetition=0"
attr measurement "$net=three_caches_scenario_3_links, $rep=4, $priceratiovalue=10, $weights=0.7_0.15_0.15, $a=1, $ctlg=1e5, $F=nrr, $ttl=1000, $D=costprob0.005, $xi=1, $R=lru, $csize=1e3"
attr net three_caches_scenario_3_links
attr network networks.${net=three_caches_scenario_3_links}_network
attr priceratiovalue 10
attr processid 11201
attr rep 4
attr repetition 0
attr replication #0
attr resultdir results
attr runnumber 2254
attr seedset 4
attr ttl 1000
attr weights 0.7_0.15_0.15
attr xi 1

scalar . 	a 	1
scalar . 	csize 	1e3
scalar . 	ctlg 	1e5
scalar . 	priceratiovalue 	10
scalar . 	rep 	4
scalar . 	ttl 	1000
scalar . 	xi 	1
scalar three_caches_scenario_3_links_network.content_distribution 	repo-0 	4
scalar three_caches_scenario_3_links_network.content_distribution 	repo-1 	5
scalar three_caches_scenario_3_links_network.content_distribution 	repo-2 	6
scalar three_caches_scenario_3_links_network.content_distribution 	client-0 	0
scalar three_caches_scenario_3_links_network.content_distribution 	repo-0_card 	70058
scalar three_caches_scenario_3_links_network.content_distribution 	repo-1_card 	14957
scalar three_caches_scenario_3_links_network.content_distribution 	repo-2_card 	14985
scalar three_caches_scenario_3_links_network.statistics 	p_hit 	0.045040914848503
scalar three_caches_scenario_3_links_network.statistics 	interests 	72293
scalar three_caches_scenario_3_links_network.statistics 	data 	46639.714285714
scalar three_caches_scenario_3_links_network.statistics 	hdistance 	1.9176323834875
scalar three_caches_scenario_3_links_network.statistics 	avg_time 	0
scalar three_caches_scenario_3_links_network.statistics 	downloads 	179573
scalar three_caches_scenario_3_links_network.statistics 	total_cost 	90723
scalar three_caches_scenario_3_links_network.statistics 	total_replicas 	100000
scalar three_caches_scenario_3_links_network.statistics 	interests_sent 	179573
scalar three_caches_scenario_3_links_network.node[0].core_layer 	interests[0] 	179573
scalar three_caches_scenario_3_links_network.node[0].core_layer 	data[0] 	169698
scalar three_caches_scenario_3_links_network.node[0].core_layer 	repo_int[0] 	156780
scalar three_caches_scenario_3_links_network.node[0].content_store 	p_hit[0] 	0.054991563319653
scalar three_caches_scenario_3_links_network.node[0].content_store 	hits[0] 	9875
scalar three_caches_scenario_3_links_network.node[0].content_store 	misses[0] 	169698
scalar three_caches_scenario_3_links_network.node[0].content_store 	decision_yes[0] 	279
scalar three_caches_scenario_3_links_network.node[0].content_store 	decision_no[0] 	169419
scalar three_caches_scenario_3_links_network.node[1].core_layer 	interests[1] 	138903
scalar three_caches_scenario_3_links_network.node[1].core_layer 	data[1] 	138903
scalar three_caches_scenario_3_links_network.node[1].content_store 	p_hit[1] 	0
scalar three_caches_scenario_3_links_network.node[1].content_store 	hits[1] 	0
scalar three_caches_scenario_3_links_network.node[1].content_store 	misses[1] 	138903
scalar three_caches_scenario_3_links_network.node[1].content_store 	decision_yes[1] 	0
scalar three_caches_scenario_3_links_network.node[1].content_store 	decision_no[1] 	138903
scalar three_caches_scenario_3_links_network.node[2].core_layer 	interests[2] 	15156
scalar three_caches_scenario_3_links_network.node[2].core_layer 	data[2] 	9783
scalar three_caches_scenario_3_links_network.node[2].content_store 	p_hit[2] 	0.35451306413302
scalar three_caches_scenario_3_links_network.node[2].content_store 	hits[2] 	5373
scalar three_caches_scenario_3_links_network.node[2].content_store 	misses[2] 	9783
scalar three_caches_scenario_3_links_network.node[2].content_store 	decision_yes[2] 	25
scalar three_caches_scenario_3_links_network.node[2].content_store 	decision_no[2] 	9758
scalar three_caches_scenario_3_links_network.node[3].core_layer 	interests[3] 	15639
scalar three_caches_scenario_3_links_network.node[3].core_layer 	data[3] 	8094
scalar three_caches_scenario_3_links_network.node[3].content_store 	p_hit[3] 	0.48244772683675
scalar three_caches_scenario_3_links_network.node[3].content_store 	hits[3] 	7545
scalar three_caches_scenario_3_links_network.node[3].content_store 	misses[3] 	8094
scalar three_caches_scenario_3_links_network.node[3].content_store 	decision_yes[3] 	253
scalar three_caches_scenario_3_links_network.node[3].content_store 	decision_no[3] 	7841
scalar three_caches_scenario_3_links_network.node[4].core_layer 	interests[4] 	138903
scalar three_caches_scenario_3_links_network.node[4].core_layer 	repo_load[4] 	138903
scalar three_caches_scenario_3_links_network.node[4].core_layer 	data[4] 	0
scalar three_caches_scenario_3_links_network.node[4].content_store 	p_hit[4] 	0
scalar three_caches_scenario_3_links_network.node[4].content_store 	hits[4] 	0
scalar three_caches_scenario_3_links_network.node[4].content_store 	misses[4] 	138903
scalar three_caches_scenario_3_links_network.node[4].content_store 	decision_yes[4] 	0
scalar three_caches_scenario_3_links_network.node[4].content_store 	decision_no[4] 	138903
scalar three_caches_scenario_3_links_network.node[5].core_layer 	interests[5] 	9783
scalar three_caches_scenario_3_links_network.node[5].core_layer 	repo_load[5] 	9783
scalar three_caches_scenario_3_links_network.node[5].core_layer 	data[5] 	0
scalar three_caches_scenario_3_links_network.node[5].content_store 	p_hit[5] 	0
scalar three_caches_scenario_3_links_network.node[5].content_store 	hits[5] 	0
scalar three_caches_scenario_3_links_network.node[5].content_store 	misses[5] 	9783
scalar three_caches_scenario_3_links_network.node[5].content_store 	decision_yes[5] 	0
scalar three_caches_scenario_3_links_network.node[5].content_store 	decision_no[5] 	9783
scalar three_caches_scenario_3_links_network.node[6].core_layer 	interests[6] 	8094
scalar three_caches_scenario_3_links_network.node[6].core_layer 	repo_load[6] 	8094
scalar three_caches_scenario_3_links_network.node[6].core_layer 	data[6] 	0
scalar three_caches_scenario_3_links_network.node[6].content_store 	p_hit[6] 	0
scalar three_caches_scenario_3_links_network.node[6].content_store 	hits[6] 	0
scalar three_caches_scenario_3_links_network.node[6].content_store 	misses[6] 	8094
scalar three_caches_scenario_3_links_network.node[6].content_store 	decision_yes[6] 	0
scalar three_caches_scenario_3_links_network.node[6].content_store 	decision_no[6] 	8094
scalar three_caches_scenario_3_links_network.client[0] 	hdistance[0] 	1.9176323834875
scalar three_caches_scenario_3_links_network.client[0] 	downloads[0] 	179573
scalar three_caches_scenario_3_links_network.client[0] 	avg_time[0] 	0
scalar three_caches_scenario_3_links_network.client[0] 	interests_sent[0] 	179573
