version 2
run General-42-20140626-18:06:03-10926
attr D fix0.01
attr F nrr
attr R lru
attr a 1
attr configname General
attr csize 1e3
attr ctlg 1e5
attr datetime 20140626-18:06:03
attr experiment General
attr inifile omnetpp.ini
attr iterationvars "$net=abilene_cost, $rep=6, $priceratiovalue=10, $weights=0.333_0.333_0.334, $lambda=100, $a=1, $ctlg=1e5, $F=nrr, $ttl=1000, $D=fix0.01, $xi=1, $R=lru, $csize=1e3, $pricebits=0, $mytime=1800"
attr iterationvars2 "$net=abilene_cost, $rep=6, $priceratiovalue=10, $weights=0.333_0.333_0.334, $lambda=100, $a=1, $ctlg=1e5, $F=nrr, $ttl=1000, $D=fix0.01, $xi=1, $R=lru, $csize=1e3, $pricebits=0, $mytime=1800, $repetition=0"
attr lambda 100
attr measurement "$net=abilene_cost, $rep=6, $priceratiovalue=10, $weights=0.333_0.333_0.334, $lambda=100, $a=1, $ctlg=1e5, $F=nrr, $ttl=1000, $D=fix0.01, $xi=1, $R=lru, $csize=1e3, $pricebits=0, $mytime=1800"
attr mytime 1800
attr net abilene_cost
attr network "networks.${net=geant_cost, abilene_cost}_network"
attr pricebits 0
attr priceratiovalue 10
attr processid 10926
attr rep 6
attr repetition 0
attr replication #0
attr resultdir results
attr runnumber 42
attr seedset 6
attr ttl 1000
attr weights 0.333_0.333_0.334
attr xi 1

scalar . 	a 	1
scalar . 	csize 	1e3
scalar . 	ctlg 	1e5
scalar . 	lambda 	100
scalar . 	mytime 	1800
scalar . 	pricebits 	0
scalar . 	priceratiovalue 	10
scalar . 	rep 	6
scalar . 	ttl 	1000
scalar . 	xi 	1
scalar abilene_cost_network.content_distribution 	repo-0 	11
scalar abilene_cost_network.content_distribution 	repo-1 	12
scalar abilene_cost_network.content_distribution 	repo-2 	13
scalar abilene_cost_network.content_distribution 	client-0 	5
scalar abilene_cost_network.content_distribution 	client-1 	0
scalar abilene_cost_network.content_distribution 	client-2 	9
scalar abilene_cost_network.content_distribution 	repo-0_card 	33436
scalar abilene_cost_network.content_distribution 	repo-1_card 	33143
scalar abilene_cost_network.content_distribution 	repo-2_card 	33421
scalar abilene_cost_network.statistics 	repo_popularity[0] 	0.39107817255936
scalar abilene_cost_network.statistics 	repo_popularity[1] 	0.30968687902184
scalar abilene_cost_network.statistics 	repo_popularity[2] 	0.2992349484188
scalar abilene_cost_network.statistics 	stabilization_time 	456.6
scalar abilene_cost_network.node[1].face$o[4].channel 	price[1] 	0
scalar abilene_cost_network.node[1].face$o[4].channel 	represented_price[1] 	0
scalar abilene_cost_network.node[7].face$o[4].channel 	price[7] 	0
scalar abilene_cost_network.node[7].face$o[4].channel 	represented_price[7] 	0
scalar abilene_cost_network.node[10].face$o[4].channel 	price[10] 	0
scalar abilene_cost_network.node[10].face$o[4].channel 	represented_price[10] 	0
scalar abilene_cost_network.node[11].face$o[1].channel 	price[11] 	0
scalar abilene_cost_network.node[11].face$o[1].channel 	represented_price[11] 	0
scalar abilene_cost_network.node[12].face$o[1].channel 	price[12] 	1
scalar abilene_cost_network.node[12].face$o[1].channel 	represented_price[12] 	1
scalar abilene_cost_network.node[13].face$o[1].channel 	price[13] 	10
scalar abilene_cost_network.node[13].face$o[1].channel 	represented_price[13] 	10
scalar abilene_cost_network.statistics 	p_hit 	0.18697833251201
scalar abilene_cost_network.statistics 	interests 	111318.85714286
scalar abilene_cost_network.statistics 	data 	72753.714285714
scalar abilene_cost_network.statistics 	hdistance 	2.3463225628505
scalar abilene_cost_network.statistics 	avg_time 	0.009358692143
scalar abilene_cost_network.statistics 	downloads 	539817
scalar abilene_cost_network.statistics 	total_cost 	912409
scalar abilene_cost_network.statistics 	total_replicas 	100000
scalar abilene_cost_network.statistics 	inner_hit 	0.53981256611037
scalar abilene_cost_network.statistics 	interests_sent 	539907
scalar abilene_cost_network.node[0].core_layer 	interests[0] 	183705
scalar abilene_cost_network.node[0].core_layer 	data[0] 	111442
scalar abilene_cost_network.node[0].core_layer 	repo_int[0] 	248417
scalar abilene_cost_network.node[0].content_store 	p_hit[0] 	0.39317383849106
scalar abilene_cost_network.node[0].content_store 	hits[0] 	72228
scalar abilene_cost_network.node[0].content_store 	misses[0] 	111477
scalar abilene_cost_network.node[0].content_store 	decision_yes[0] 	1090
scalar abilene_cost_network.node[0].content_store 	decision_no[0] 	110352
scalar abilene_cost_network.node[0].content_store 	decision_ratio[0] 	0.0097808725615118
scalar abilene_cost_network.node[1].core_layer 	interests[1] 	163184
scalar abilene_cost_network.node[1].core_layer 	data[1] 	152214
scalar abilene_cost_network.node[1].content_store 	p_hit[1] 	0.067206343759192
scalar abilene_cost_network.node[1].content_store 	hits[1] 	10967
scalar abilene_cost_network.node[1].content_store 	misses[1] 	152217
scalar abilene_cost_network.node[1].content_store 	decision_yes[1] 	1484
scalar abilene_cost_network.node[1].content_store 	decision_no[1] 	150730
scalar abilene_cost_network.node[1].content_store 	decision_ratio[1] 	0.0097494317211295
scalar abilene_cost_network.node[2].core_layer 	interests[2] 	107621
scalar abilene_cost_network.node[2].core_layer 	data[2] 	96989
scalar abilene_cost_network.node[2].content_store 	p_hit[2] 	0.098772544391894
scalar abilene_cost_network.node[2].content_store 	hits[2] 	10630
scalar abilene_cost_network.node[2].content_store 	misses[2] 	96991
scalar abilene_cost_network.node[2].content_store 	decision_yes[2] 	973
scalar abilene_cost_network.node[2].content_store 	decision_no[2] 	96016
scalar abilene_cost_network.node[2].content_store 	decision_ratio[2] 	0.010032065491963
scalar abilene_cost_network.node[3].core_layer 	interests[3] 	100486
scalar abilene_cost_network.node[3].core_layer 	data[3] 	93355
scalar abilene_cost_network.node[3].content_store 	p_hit[3] 	0.070965109567502
scalar abilene_cost_network.node[3].content_store 	hits[3] 	7131
scalar abilene_cost_network.node[3].content_store 	misses[3] 	93355
scalar abilene_cost_network.node[3].content_store 	decision_yes[3] 	935
scalar abilene_cost_network.node[3].content_store 	decision_no[3] 	92420
scalar abilene_cost_network.node[3].content_store 	decision_ratio[3] 	0.010015532108618
scalar abilene_cost_network.node[4].core_layer 	interests[4] 	72972
scalar abilene_cost_network.node[4].core_layer 	data[4] 	66563
scalar abilene_cost_network.node[4].content_store 	p_hit[4] 	0.087828208079811
scalar abilene_cost_network.node[4].content_store 	hits[4] 	6409
scalar abilene_cost_network.node[4].content_store 	misses[4] 	66563
scalar abilene_cost_network.node[4].content_store 	decision_yes[4] 	659
scalar abilene_cost_network.node[4].content_store 	decision_no[4] 	65904
scalar abilene_cost_network.node[4].content_store 	decision_ratio[4] 	0.0099003951144029
scalar abilene_cost_network.node[5].core_layer 	interests[5] 	180659
scalar abilene_cost_network.node[5].core_layer 	data[5] 	110050
scalar abilene_cost_network.node[5].content_store 	p_hit[5] 	0.39070292650795
scalar abilene_cost_network.node[5].content_store 	hits[5] 	70584
scalar abilene_cost_network.node[5].content_store 	misses[5] 	110075
scalar abilene_cost_network.node[5].content_store 	decision_yes[5] 	1097
scalar abilene_cost_network.node[5].content_store 	decision_no[5] 	108953
scalar abilene_cost_network.node[5].content_store 	decision_ratio[5] 	0.0099681962744207
scalar abilene_cost_network.node[6].core_layer 	interests[6] 	40564
scalar abilene_cost_network.node[6].core_layer 	data[6] 	33586
scalar abilene_cost_network.node[6].content_store 	p_hit[6] 	0.17202445518193
scalar abilene_cost_network.node[6].content_store 	hits[6] 	6978
scalar abilene_cost_network.node[6].content_store 	misses[6] 	33586
scalar abilene_cost_network.node[6].content_store 	decision_yes[6] 	325
scalar abilene_cost_network.node[6].content_store 	decision_no[6] 	33261
scalar abilene_cost_network.node[6].content_store 	decision_ratio[6] 	0.0096766509855297
scalar abilene_cost_network.node[7].core_layer 	interests[7] 	92058
scalar abilene_cost_network.node[7].core_layer 	data[7] 	85300
scalar abilene_cost_network.node[7].content_store 	p_hit[7] 	0.073410241369571
scalar abilene_cost_network.node[7].content_store 	hits[7] 	6758
scalar abilene_cost_network.node[7].content_store 	misses[7] 	85300
scalar abilene_cost_network.node[7].content_store 	decision_yes[7] 	822
scalar abilene_cost_network.node[7].content_store 	decision_no[7] 	84478
scalar abilene_cost_network.node[7].content_store 	decision_ratio[7] 	0.0096365767878077
scalar abilene_cost_network.node[8].core_layer 	interests[8] 	47321
scalar abilene_cost_network.node[8].core_layer 	data[8] 	36760
scalar abilene_cost_network.node[8].content_store 	p_hit[8] 	0.22317787029015
scalar abilene_cost_network.node[8].content_store 	hits[8] 	10561
scalar abilene_cost_network.node[8].content_store 	misses[8] 	36760
scalar abilene_cost_network.node[8].content_store 	decision_yes[8] 	367
scalar abilene_cost_network.node[8].content_store 	decision_no[8] 	36393
scalar abilene_cost_network.node[8].content_store 	decision_ratio[8] 	0.0099836779107726
scalar abilene_cost_network.node[9].core_layer 	interests[9] 	183709
scalar abilene_cost_network.node[9].core_layer 	data[9] 	109386
scalar abilene_cost_network.node[9].content_store 	p_hit[9] 	0.40440588104012
scalar abilene_cost_network.node[9].content_store 	hits[9] 	74293
scalar abilene_cost_network.node[9].content_store 	misses[9] 	109416
scalar abilene_cost_network.node[9].content_store 	decision_yes[9] 	1060
scalar abilene_cost_network.node[9].content_store 	decision_no[9] 	108326
scalar abilene_cost_network.node[9].content_store 	decision_ratio[9] 	0.0096904539886274
scalar abilene_cost_network.node[10].core_layer 	interests[10] 	137768
scalar abilene_cost_network.node[10].core_layer 	data[10] 	122907
scalar abilene_cost_network.node[10].content_store 	p_hit[10] 	0.10786249346728
scalar abilene_cost_network.node[10].content_store 	hits[10] 	14860
scalar abilene_cost_network.node[10].content_store 	misses[10] 	122908
scalar abilene_cost_network.node[10].content_store 	decision_yes[10] 	1211
scalar abilene_cost_network.node[10].content_store 	decision_no[10] 	121695
scalar abilene_cost_network.node[10].content_store 	decision_ratio[10] 	0.0098530584349015
scalar abilene_cost_network.node[11].core_layer 	interests[11] 	86077
scalar abilene_cost_network.node[11].core_layer 	repo_load[11] 	86077
scalar abilene_cost_network.node[11].core_layer 	data[11] 	0
scalar abilene_cost_network.node[11].content_store 	p_hit[11] 	0
scalar abilene_cost_network.node[11].content_store 	hits[11] 	0
scalar abilene_cost_network.node[11].content_store 	misses[11] 	86077
scalar abilene_cost_network.node[11].content_store 	decision_yes[11] 	0
scalar abilene_cost_network.node[11].content_store 	decision_no[11] 	86077
scalar abilene_cost_network.node[11].content_store 	decision_ratio[11] 	0
scalar abilene_cost_network.node[12].core_layer 	interests[12] 	78999
scalar abilene_cost_network.node[12].core_layer 	repo_load[12] 	78999
scalar abilene_cost_network.node[12].core_layer 	data[12] 	0
scalar abilene_cost_network.node[12].content_store 	p_hit[12] 	0
scalar abilene_cost_network.node[12].content_store 	hits[12] 	0
scalar abilene_cost_network.node[12].content_store 	misses[12] 	78999
scalar abilene_cost_network.node[12].content_store 	decision_yes[12] 	0
scalar abilene_cost_network.node[12].content_store 	decision_no[12] 	78999
scalar abilene_cost_network.node[12].content_store 	decision_ratio[12] 	0
scalar abilene_cost_network.node[13].core_layer 	interests[13] 	83341
scalar abilene_cost_network.node[13].core_layer 	repo_load[13] 	83341
scalar abilene_cost_network.node[13].core_layer 	data[13] 	0
scalar abilene_cost_network.node[13].content_store 	p_hit[13] 	0
scalar abilene_cost_network.node[13].content_store 	hits[13] 	0
scalar abilene_cost_network.node[13].content_store 	misses[13] 	83341
scalar abilene_cost_network.node[13].content_store 	decision_yes[13] 	0
scalar abilene_cost_network.node[13].content_store 	decision_no[13] 	83341
scalar abilene_cost_network.node[13].content_store 	decision_ratio[13] 	0
scalar abilene_cost_network.client[0] 	hdistance[0] 	2.1477412628521
scalar abilene_cost_network.client[0] 	downloads[0] 	180322
scalar abilene_cost_network.client[0] 	avg_time[0] 	0.009137512294
scalar abilene_cost_network.client[0] 	interests_sent[0] 	180357
scalar abilene_cost_network.client[5] 	hdistance[5] 	2.9504444025255
scalar abilene_cost_network.client[5] 	downloads[5] 	180242
scalar abilene_cost_network.client[5] 	avg_time[5] 	0.010878280622
scalar abilene_cost_network.client[5] 	interests_sent[5] 	180267
scalar abilene_cost_network.client[9] 	hdistance[9] 	1.9407820231739
scalar abilene_cost_network.client[9] 	downloads[9] 	179253
scalar abilene_cost_network.client[9] 	avg_time[9] 	0.008060283513
scalar abilene_cost_network.client[9] 	interests_sent[9] 	179283
