version 2
run General-8-20140904-16:41:12-16197
attr D costprobprodcorr0.01
attr F spr
attr R lru
attr a 1
attr configname General
attr csize 1e3
attr ctlg 1e5
attr datetime 20140904-16:41:12
attr experiment General
attr inifile omnetpp.ini
attr iterationvars "$net=dtelecom_cost, $rep=12, $priceratiovalue=10, $weights=0.333_0.333_0.334, $lambda=100, $a=1, $ctlg=1e5, $F=spr, $ttl=10, $D=costprobprodcorr0.01, $xi=1, $R=lru, $csize=1e3, $pricebits=0, $window=60, $variance=0.05, $mytime=1800"
attr iterationvars2 "$net=dtelecom_cost, $rep=12, $priceratiovalue=10, $weights=0.333_0.333_0.334, $lambda=100, $a=1, $ctlg=1e5, $F=spr, $ttl=10, $D=costprobprodcorr0.01, $xi=1, $R=lru, $csize=1e3, $pricebits=0, $window=60, $variance=0.05, $mytime=1800, $repetition=0"
attr lambda 100
attr measurement "$net=dtelecom_cost, $rep=12, $priceratiovalue=10, $weights=0.333_0.333_0.334, $lambda=100, $a=1, $ctlg=1e5, $F=spr, $ttl=10, $D=costprobprodcorr0.01, $xi=1, $R=lru, $csize=1e3, $pricebits=0, $window=60, $variance=0.05, $mytime=1800"
attr mytime 1800
attr net dtelecom_cost
attr network networks.${net=dtelecom_cost,level3_cost,tiger_cost}_network
attr pricebits 0
attr priceratiovalue 10
attr processid 16197
attr rep 12
attr repetition 0
attr replication #0
attr resultdir results
attr runnumber 8
attr seedset 12
attr ttl 10
attr variance 0.05
attr weights 0.333_0.333_0.334
attr window 60
attr xi 1

scalar . 	a 	1
scalar . 	csize 	1e3
scalar . 	ctlg 	1e5
scalar . 	lambda 	100
scalar . 	mytime 	1800
scalar . 	pricebits 	0
scalar . 	priceratiovalue 	10
scalar . 	rep 	12
scalar . 	ttl 	10
scalar . 	variance 	0.05
scalar . 	window 	60
scalar . 	xi 	1
scalar dtelecom_cost_network.content_distribution 	repo-0 	15
scalar dtelecom_cost_network.content_distribution 	repo-1 	53
scalar dtelecom_cost_network.content_distribution 	repo-2 	22
scalar dtelecom_cost_network.content_distribution 	client-0 	35
scalar dtelecom_cost_network.content_distribution 	client-1 	67
scalar dtelecom_cost_network.content_distribution 	client-2 	42
scalar dtelecom_cost_network.content_distribution 	repo-0_card 	33377
scalar dtelecom_cost_network.content_distribution 	repo-0_price 	1
scalar dtelecom_cost_network.content_distribution 	repo-1_card 	33438
scalar dtelecom_cost_network.content_distribution 	repo-1_price 	0
scalar dtelecom_cost_network.content_distribution 	repo-2_card 	33185
scalar dtelecom_cost_network.content_distribution 	repo-2_price 	10
scalar dtelecom_cost_network.statistics 	repo_popularity[0] 	0.39206413854294
scalar dtelecom_cost_network.statistics 	repo_popularity[1] 	0.32380036391025
scalar dtelecom_cost_network.statistics 	repo_popularity[2] 	0.28413549754682
