version 2
run General-6-20140625-11:03:12-10521
attr D fix0.0001
attr F nrr
attr R lru
attr a 1
attr configname General
attr csize 1e3
attr ctlg 1e5
attr datetime 20140625-11:03:12
attr experiment General
attr inifile omnetpp.ini
attr iterationvars "$net=abilene_cost, $rep=1, $priceratiovalue=10, $weights=0.333_0.333_0.334, $lambda=100, $a=1, $ctlg=1e5, $F=nrr, $ttl=1000, $D=fix0.0001, $xi=1, $R=lru, $csize=1e3, $pricebits=0, $mytime=1800"
attr iterationvars2 "$net=abilene_cost, $rep=1, $priceratiovalue=10, $weights=0.333_0.333_0.334, $lambda=100, $a=1, $ctlg=1e5, $F=nrr, $ttl=1000, $D=fix0.0001, $xi=1, $R=lru, $csize=1e3, $pricebits=0, $mytime=1800, $repetition=0"
attr lambda 100
attr measurement "$net=abilene_cost, $rep=1, $priceratiovalue=10, $weights=0.333_0.333_0.334, $lambda=100, $a=1, $ctlg=1e5, $F=nrr, $ttl=1000, $D=fix0.0001, $xi=1, $R=lru, $csize=1e3, $pricebits=0, $mytime=1800"
attr mytime 1800
attr net abilene_cost
attr network networks.${net=abilene_cost}_network
attr pricebits 0
attr priceratiovalue 10
attr processid 10521
attr rep 1
attr repetition 0
attr replication #0
attr resultdir results
attr runnumber 6
attr seedset 1
attr ttl 1000
attr weights 0.333_0.333_0.334
attr xi 1

scalar . 	a 	1
scalar . 	csize 	1e3
scalar . 	ctlg 	1e5
scalar . 	lambda 	100
scalar . 	mytime 	1800
scalar . 	pricebits 	0
scalar . 	priceratiovalue 	10
scalar . 	rep 	1
scalar . 	ttl 	1000
scalar . 	xi 	1
scalar abilene_cost_network.content_distribution 	repo-0 	11
scalar abilene_cost_network.content_distribution 	repo-1 	12
scalar abilene_cost_network.content_distribution 	repo-2 	13
scalar abilene_cost_network.content_distribution 	client-0 	5
scalar abilene_cost_network.content_distribution 	client-1 	0
scalar abilene_cost_network.content_distribution 	client-2 	9
scalar abilene_cost_network.content_distribution 	repo-0_card 	33396
scalar abilene_cost_network.content_distribution 	repo-1_card 	33039
scalar abilene_cost_network.content_distribution 	repo-2_card 	33565
scalar abilene_cost_network.statistics 	repo_popularity[0] 	0.28686251265602
scalar abilene_cost_network.statistics 	repo_popularity[1] 	0.2886063426465
scalar abilene_cost_network.statistics 	repo_popularity[2] 	0.42453114469748
scalar abilene_cost_network.statistics 	stabilization_time 	36060
scalar abilene_cost_network.node[1].face$o[4].channel 	price[1] 	0
scalar abilene_cost_network.node[1].face$o[4].channel 	represented_price[1] 	0
scalar abilene_cost_network.node[7].face$o[4].channel 	price[7] 	0
scalar abilene_cost_network.node[7].face$o[4].channel 	represented_price[7] 	0
scalar abilene_cost_network.node[10].face$o[4].channel 	price[10] 	0
scalar abilene_cost_network.node[10].face$o[4].channel 	represented_price[10] 	0
scalar abilene_cost_network.node[11].face$o[1].channel 	price[11] 	0
scalar abilene_cost_network.node[11].face$o[1].channel 	represented_price[11] 	0
scalar abilene_cost_network.node[12].face$o[1].channel 	price[12] 	1
scalar abilene_cost_network.node[12].face$o[1].channel 	represented_price[12] 	1
scalar abilene_cost_network.node[13].face$o[1].channel 	price[13] 	10
scalar abilene_cost_network.node[13].face$o[1].channel 	represented_price[13] 	10
scalar abilene_cost_network.statistics 	p_hit 	0.1817688303518
scalar abilene_cost_network.statistics 	interests 	112629.71428571
scalar abilene_cost_network.statistics 	data 	74126.285714286
scalar abilene_cost_network.statistics 	hdistance 	2.39424316858
scalar abilene_cost_network.statistics 	avg_time 	0.009523153995
scalar abilene_cost_network.statistics 	downloads 	538924
scalar abilene_cost_network.statistics 	total_cost 	955102
scalar abilene_cost_network.statistics 	total_replicas 	100000
scalar abilene_cost_network.statistics 	inner_hit 	0.53183565771797
scalar abilene_cost_network.statistics 	interests_sent 	539051
scalar abilene_cost_network.node[0].core_layer 	interests[0] 	184717
scalar abilene_cost_network.node[0].core_layer 	data[0] 	111064
scalar abilene_cost_network.node[0].core_layer 	repo_int[0] 	252305
scalar abilene_cost_network.node[0].content_store 	p_hit[0] 	0.39858811046087
scalar abilene_cost_network.node[0].content_store 	hits[0] 	73626
scalar abilene_cost_network.node[0].content_store 	misses[0] 	111091
scalar abilene_cost_network.node[0].content_store 	decision_yes[0] 	14
scalar abilene_cost_network.node[0].content_store 	decision_no[0] 	111050
scalar abilene_cost_network.node[0].content_store 	decision_ratio[0] 	0.00012605344666138
scalar abilene_cost_network.node[1].core_layer 	interests[1] 	167885
scalar abilene_cost_network.node[1].core_layer 	data[1] 	154128
scalar abilene_cost_network.node[1].content_store 	p_hit[1] 	0.081942996694166
scalar abilene_cost_network.node[1].content_store 	hits[1] 	13757
scalar abilene_cost_network.node[1].content_store 	misses[1] 	154128
scalar abilene_cost_network.node[1].content_store 	decision_yes[1] 	17
scalar abilene_cost_network.node[1].content_store 	decision_no[1] 	154111
scalar abilene_cost_network.node[1].content_store 	decision_ratio[1] 	0.00011029793418457
scalar abilene_cost_network.node[2].core_layer 	interests[2] 	106485
scalar abilene_cost_network.node[2].core_layer 	data[2] 	97747
scalar abilene_cost_network.node[2].content_store 	p_hit[2] 	0.082049114898812
scalar abilene_cost_network.node[2].content_store 	hits[2] 	8737
scalar abilene_cost_network.node[2].content_store 	misses[2] 	97748
scalar abilene_cost_network.node[2].content_store 	decision_yes[2] 	7
scalar abilene_cost_network.node[2].content_store 	decision_no[2] 	97740
scalar abilene_cost_network.node[2].content_store 	decision_ratio[2] 	7.1613451052206e-05
scalar abilene_cost_network.node[3].core_layer 	interests[3] 	103646
scalar abilene_cost_network.node[3].core_layer 	data[3] 	94483
scalar abilene_cost_network.node[3].content_store 	p_hit[3] 	0.088416340235031
scalar abilene_cost_network.node[3].content_store 	hits[3] 	9164
scalar abilene_cost_network.node[3].content_store 	misses[3] 	94482
scalar abilene_cost_network.node[3].content_store 	decision_yes[3] 	10
scalar abilene_cost_network.node[3].content_store 	decision_no[3] 	94473
scalar abilene_cost_network.node[3].content_store 	decision_ratio[3] 	0.00010583914566642
scalar abilene_cost_network.node[4].core_layer 	interests[4] 	77072
scalar abilene_cost_network.node[4].core_layer 	data[4] 	69143
scalar abilene_cost_network.node[4].content_store 	p_hit[4] 	0.10289080340461
scalar abilene_cost_network.node[4].content_store 	hits[4] 	7930
scalar abilene_cost_network.node[4].content_store 	misses[4] 	69142
scalar abilene_cost_network.node[4].content_store 	decision_yes[4] 	8
scalar abilene_cost_network.node[4].content_store 	decision_no[4] 	69135
scalar abilene_cost_network.node[4].content_store 	decision_ratio[4] 	0.00011570224028463
scalar abilene_cost_network.node[5].core_layer 	interests[5] 	180299
scalar abilene_cost_network.node[5].core_layer 	data[5] 	114006
scalar abilene_cost_network.node[5].content_store 	p_hit[5] 	0.36738972484595
scalar abilene_cost_network.node[5].content_store 	hits[5] 	66240
scalar abilene_cost_network.node[5].content_store 	misses[5] 	114059
scalar abilene_cost_network.node[5].content_store 	decision_yes[5] 	14
scalar abilene_cost_network.node[5].content_store 	decision_no[5] 	113992
scalar abilene_cost_network.node[5].content_store 	decision_ratio[5] 	0.00012280055435679
scalar abilene_cost_network.node[6].core_layer 	interests[6] 	39914
scalar abilene_cost_network.node[6].core_layer 	data[6] 	34623
scalar abilene_cost_network.node[6].content_store 	p_hit[6] 	0.13256000400862
scalar abilene_cost_network.node[6].content_store 	hits[6] 	5291
scalar abilene_cost_network.node[6].content_store 	misses[6] 	34623
scalar abilene_cost_network.node[6].content_store 	decision_yes[6] 	2
scalar abilene_cost_network.node[6].content_store 	decision_no[6] 	34621
scalar abilene_cost_network.node[6].content_store 	decision_ratio[6] 	5.7765069462496e-05
scalar abilene_cost_network.node[7].core_layer 	interests[7] 	93971
scalar abilene_cost_network.node[7].core_layer 	data[7] 	84634
scalar abilene_cost_network.node[7].content_store 	p_hit[7] 	0.0993497994062
scalar abilene_cost_network.node[7].content_store 	hits[7] 	9336
scalar abilene_cost_network.node[7].content_store 	misses[7] 	84635
scalar abilene_cost_network.node[7].content_store 	decision_yes[7] 	9
scalar abilene_cost_network.node[7].content_store 	decision_no[7] 	84625
scalar abilene_cost_network.node[7].content_store 	decision_ratio[7] 	0.0001063402415105
scalar abilene_cost_network.node[8].core_layer 	interests[8] 	43563
scalar abilene_cost_network.node[8].core_layer 	data[8] 	38190
scalar abilene_cost_network.node[8].content_store 	p_hit[8] 	0.12333861304318
scalar abilene_cost_network.node[8].content_store 	hits[8] 	5373
scalar abilene_cost_network.node[8].content_store 	misses[8] 	38190
scalar abilene_cost_network.node[8].content_store 	decision_yes[8] 	5
scalar abilene_cost_network.node[8].content_store 	decision_no[8] 	38185
scalar abilene_cost_network.node[8].content_store 	decision_ratio[8] 	0.00013092432573972
scalar abilene_cost_network.node[9].core_layer 	interests[9] 	184965
scalar abilene_cost_network.node[9].core_layer 	data[9] 	113669
scalar abilene_cost_network.node[9].content_store 	p_hit[9] 	0.38520260589841
scalar abilene_cost_network.node[9].content_store 	hits[9] 	71249
scalar abilene_cost_network.node[9].content_store 	misses[9] 	113716
scalar abilene_cost_network.node[9].content_store 	decision_yes[9] 	13
scalar abilene_cost_network.node[9].content_store 	decision_no[9] 	113656
scalar abilene_cost_network.node[9].content_store 	decision_ratio[9] 	0.00011436715375344
scalar abilene_cost_network.node[10].core_layer 	interests[10] 	141994
scalar abilene_cost_network.node[10].core_layer 	data[10] 	126081
scalar abilene_cost_network.node[10].content_store 	p_hit[10] 	0.11206811555418
scalar abilene_cost_network.node[10].content_store 	hits[10] 	15913
scalar abilene_cost_network.node[10].content_store 	misses[10] 	126081
scalar abilene_cost_network.node[10].content_store 	decision_yes[10] 	14
scalar abilene_cost_network.node[10].content_store 	decision_no[10] 	126067
scalar abilene_cost_network.node[10].content_store 	decision_ratio[10] 	0.00011103972842855
scalar abilene_cost_network.node[11].core_layer 	interests[11] 	85207
scalar abilene_cost_network.node[11].core_layer 	repo_load[11] 	85207
scalar abilene_cost_network.node[11].core_layer 	data[11] 	0
scalar abilene_cost_network.node[11].content_store 	p_hit[11] 	0
scalar abilene_cost_network.node[11].content_store 	hits[11] 	0
scalar abilene_cost_network.node[11].content_store 	misses[11] 	85207
scalar abilene_cost_network.node[11].content_store 	decision_yes[11] 	0
scalar abilene_cost_network.node[11].content_store 	decision_no[11] 	85207
scalar abilene_cost_network.node[11].content_store 	decision_ratio[11] 	0
scalar abilene_cost_network.node[12].core_layer 	interests[12] 	79542
scalar abilene_cost_network.node[12].core_layer 	repo_load[12] 	79542
scalar abilene_cost_network.node[12].core_layer 	data[12] 	0
scalar abilene_cost_network.node[12].content_store 	p_hit[12] 	0
scalar abilene_cost_network.node[12].content_store 	hits[12] 	0
scalar abilene_cost_network.node[12].content_store 	misses[12] 	79542
scalar abilene_cost_network.node[12].content_store 	decision_yes[12] 	0
scalar abilene_cost_network.node[12].content_store 	decision_no[12] 	79542
scalar abilene_cost_network.node[12].content_store 	decision_ratio[12] 	0
scalar abilene_cost_network.node[13].core_layer 	interests[13] 	87556
scalar abilene_cost_network.node[13].core_layer 	repo_load[13] 	87556
scalar abilene_cost_network.node[13].core_layer 	data[13] 	0
scalar abilene_cost_network.node[13].content_store 	p_hit[13] 	0
scalar abilene_cost_network.node[13].content_store 	hits[13] 	0
scalar abilene_cost_network.node[13].content_store 	misses[13] 	87556
scalar abilene_cost_network.node[13].content_store 	decision_yes[13] 	0
scalar abilene_cost_network.node[13].content_store 	decision_no[13] 	87556
scalar abilene_cost_network.node[13].content_store 	decision_ratio[13] 	0
scalar abilene_cost_network.client[0] 	hdistance[0] 	2.1425980629405
scalar abilene_cost_network.client[0] 	downloads[0] 	179757
scalar abilene_cost_network.client[0] 	avg_time[0] 	0.009027522483
scalar abilene_cost_network.client[0] 	interests_sent[0] 	179784
scalar abilene_cost_network.client[5] 	hdistance[5] 	3.0360039465543
scalar abilene_cost_network.client[5] 	downloads[5] 	179397
scalar abilene_cost_network.client[5] 	avg_time[5] 	0.011247411924
scalar abilene_cost_network.client[5] 	interests_sent[5] 	179450
scalar abilene_cost_network.client[9] 	hdistance[9] 	2.0041274962452
scalar abilene_cost_network.client[9] 	downloads[9] 	179770
scalar abilene_cost_network.client[9] 	avg_time[9] 	0.00829452758
scalar abilene_cost_network.client[9] 	interests_sent[9] 	179817
