version 2
run General-7425-20140425-11:16:00-6512
attr D prob_cache
attr F nrr
attr R lru
attr a 1.2
attr configname General
attr csize 9
attr ctlg 10^3
attr datetime 20140425-11:16:00
attr experiment General
attr inifile omnetpp.ini
attr iterationvars "$net=one_cache_scenario, $rep=18, $priceratiovalue=7, $a=1.2, $ctlg=10^3, $F=nrr, $ttl=1000, $D=prob_cache, $R=lru, $csize=9"
attr iterationvars2 "$net=one_cache_scenario, $rep=18, $priceratiovalue=7, $a=1.2, $ctlg=10^3, $F=nrr, $ttl=1000, $D=prob_cache, $R=lru, $csize=9, $repetition=0"
attr measurement "$net=one_cache_scenario, $rep=18, $priceratiovalue=7, $a=1.2, $ctlg=10^3, $F=nrr, $ttl=1000, $D=prob_cache, $R=lru, $csize=9"
attr net one_cache_scenario
attr network networks.${net=one_cache_scenario}_network
attr priceratiovalue 7
attr processid 6512
attr rep 18
attr repetition 0
attr replication #0
attr resultdir results
attr runnumber 7425
attr seedset 18
attr ttl 1000

scalar . 	a 	1.2
scalar . 	csize 	9
scalar . 	priceratiovalue 	7
scalar . 	rep 	18
scalar . 	ttl 	1000
scalar one_cache_scenario_network.content_distribution 	repo-0 	3
scalar one_cache_scenario_network.content_distribution 	repo-1 	4
scalar one_cache_scenario_network.content_distribution 	client-0 	0
scalar one_cache_scenario_network.content_distribution 	repo-0_card 	500
scalar one_cache_scenario_network.content_distribution 	repo-1_card 	500
scalar one_cache_scenario_network.statistics 	p_hit 	0.22525282498336
scalar one_cache_scenario_network.statistics 	interests 	74814.6
scalar one_cache_scenario_network.statistics 	data 	38641.6
scalar one_cache_scenario_network.statistics 	hdistance 	1.0682442705886
scalar one_cache_scenario_network.statistics 	avg_time 	0
scalar one_cache_scenario_network.statistics 	downloads 	180865
scalar one_cache_scenario_network.statistics 	total_cost 	45435
scalar one_cache_scenario_network.statistics 	interests_sent 	180865
scalar one_cache_scenario_network.node[0].core_layer 	interests[0] 	180865
scalar one_cache_scenario_network.node[0].core_layer 	data[0] 	96604
scalar one_cache_scenario_network.node[0].core_layer 	repo_int[0] 	96604
scalar one_cache_scenario_network.node[0].content_store 	p_hit[0] 	0.46587786470572
scalar one_cache_scenario_network.node[0].content_store 	hits[0] 	84261
scalar one_cache_scenario_network.node[0].content_store 	misses[0] 	96604
scalar one_cache_scenario_network.node[0].content_store 	decision_yes[0] 	9711
scalar one_cache_scenario_network.node[0].content_store 	decision_no[0] 	86893
scalar one_cache_scenario_network.node[1].core_layer 	interests[1] 	52124
scalar one_cache_scenario_network.node[1].core_layer 	data[1] 	52124
scalar one_cache_scenario_network.node[1].content_store 	p_hit[1] 	0
scalar one_cache_scenario_network.node[1].content_store 	hits[1] 	0
scalar one_cache_scenario_network.node[1].content_store 	misses[1] 	52124
scalar one_cache_scenario_network.node[1].content_store 	decision_yes[1] 	0
scalar one_cache_scenario_network.node[1].content_store 	decision_no[1] 	52124
scalar one_cache_scenario_network.node[2].core_layer 	interests[2] 	44480
scalar one_cache_scenario_network.node[2].core_layer 	data[2] 	44480
scalar one_cache_scenario_network.node[2].content_store 	p_hit[2] 	0
scalar one_cache_scenario_network.node[2].content_store 	hits[2] 	0
scalar one_cache_scenario_network.node[2].content_store 	misses[2] 	44480
scalar one_cache_scenario_network.node[2].content_store 	decision_yes[2] 	0
scalar one_cache_scenario_network.node[2].content_store 	decision_no[2] 	44480
scalar one_cache_scenario_network.node[3].core_layer 	interests[3] 	52124
scalar one_cache_scenario_network.node[3].core_layer 	repo_load[3] 	52124
scalar one_cache_scenario_network.node[3].core_layer 	data[3] 	0
scalar one_cache_scenario_network.node[3].content_store 	p_hit[3] 	0
scalar one_cache_scenario_network.node[3].content_store 	hits[3] 	0
scalar one_cache_scenario_network.node[3].content_store 	misses[3] 	52124
scalar one_cache_scenario_network.node[3].content_store 	decision_yes[3] 	0
scalar one_cache_scenario_network.node[3].content_store 	decision_no[3] 	52124
scalar one_cache_scenario_network.node[4].core_layer 	interests[4] 	44480
scalar one_cache_scenario_network.node[4].core_layer 	repo_load[4] 	44480
scalar one_cache_scenario_network.node[4].core_layer 	data[4] 	0
scalar one_cache_scenario_network.node[4].content_store 	p_hit[4] 	0
scalar one_cache_scenario_network.node[4].content_store 	hits[4] 	0
scalar one_cache_scenario_network.node[4].content_store 	misses[4] 	44480
scalar one_cache_scenario_network.node[4].content_store 	decision_yes[4] 	0
scalar one_cache_scenario_network.node[4].content_store 	decision_no[4] 	44480
scalar one_cache_scenario_network.client[0] 	hdistance[0] 	1.0682442705886
scalar one_cache_scenario_network.client[0] 	downloads[0] 	180865
scalar one_cache_scenario_network.client[0] 	avg_time[0] 	0
scalar one_cache_scenario_network.client[0] 	interests_sent[0] 	180865
