version 2
run General-2-20140408-17:14:59-22544
attr D lce
attr F spr
attr R lru
attr a 1
attr configname General
attr csize 2
attr datetime 20140408-17:14:59
attr experiment General
attr inifile omnetpp.ini
attr iterationvars "$net=simple_scenario, $rep=0, $a=1, $F=spr, $ttl=1000, $D=lce, $R=lru, $csize=2"
attr iterationvars2 "$net=simple_scenario, $rep=0, $a=1, $F=spr, $ttl=1000, $D=lce, $R=lru, $csize=2, $repetition=0"
attr measurement "$net=simple_scenario, $rep=0, $a=1, $F=spr, $ttl=1000, $D=lce, $R=lru, $csize=2"
attr net simple_scenario
attr network networks.${net=simple_scenario}_network
attr processid 22544
attr rep 0
attr repetition 0
attr replication #0
attr resultdir results
attr runnumber 2
attr seedset 0
attr ttl 1000

scalar . 	a 	1
scalar . 	csize 	2
scalar . 	rep 	0
scalar . 	ttl 	1000
scalar simple_scenario_network.content_distribution 	repo-0 	3
scalar simple_scenario_network.content_distribution 	repo-1 	4
scalar simple_scenario_network.content_distribution 	client-0 	0
scalar simple_scenario_network.content_distribution 	repo-0_card 	4915
scalar simple_scenario_network.content_distribution 	repo-1_card 	5085
scalar simple_scenario_network.statistics 	p_hit 	0.021406727828746
scalar simple_scenario_network.statistics 	interests 	65.4
scalar simple_scenario_network.statistics 	data 	43
scalar simple_scenario_network.statistics 	hdistance 	2.8571428571429
scalar simple_scenario_network.statistics 	avg_time 	0.001992274422
scalar simple_scenario_network.statistics 	downloads 	112
scalar simple_scenario_network.statistics 	total_cost 	105
scalar simple_scenario_network.node[0].core_layer 	interests[0] 	112
scalar simple_scenario_network.node[0].core_layer 	data[0] 	110
scalar simple_scenario_network.node[0].core_layer 	repo_int[0] 	105
scalar simple_scenario_network.node[0].content_store 	p_hit[0] 	0.017857142857143
scalar simple_scenario_network.node[0].content_store 	hits[0] 	2
scalar simple_scenario_network.node[0].content_store 	misses[0] 	110
scalar simple_scenario_network.node[1].core_layer 	interests[1] 	53
scalar simple_scenario_network.node[1].core_layer 	data[1] 	48
scalar simple_scenario_network.node[1].content_store 	p_hit[1] 	0.094339622641509
scalar simple_scenario_network.node[1].content_store 	hits[1] 	5
scalar simple_scenario_network.node[1].content_store 	misses[1] 	48
scalar simple_scenario_network.node[2].core_layer 	interests[2] 	57
scalar simple_scenario_network.node[2].core_layer 	data[2] 	57
scalar simple_scenario_network.node[2].content_store 	p_hit[2] 	0
scalar simple_scenario_network.node[2].content_store 	hits[2] 	0
scalar simple_scenario_network.node[2].content_store 	misses[2] 	57
scalar simple_scenario_network.node[3].core_layer 	interests[3] 	48
scalar simple_scenario_network.node[3].core_layer 	repo_load[3] 	48
scalar simple_scenario_network.node[3].core_layer 	data[3] 	0
scalar simple_scenario_network.node[3].content_store 	p_hit[3] 	0
scalar simple_scenario_network.node[3].content_store 	hits[3] 	0
scalar simple_scenario_network.node[3].content_store 	misses[3] 	48
scalar simple_scenario_network.node[4].core_layer 	interests[4] 	57
scalar simple_scenario_network.node[4].core_layer 	repo_load[4] 	57
scalar simple_scenario_network.node[4].core_layer 	data[4] 	0
scalar simple_scenario_network.node[4].content_store 	p_hit[4] 	0
scalar simple_scenario_network.node[4].content_store 	hits[4] 	0
scalar simple_scenario_network.node[4].content_store 	misses[4] 	57
scalar simple_scenario_network.client[0] 	hdistance[0] 	2.8571428571429
scalar simple_scenario_network.client[0] 	downloads[0] 	112
scalar simple_scenario_network.client[0] 	avg_time[0] 	0.001992274422
