version 2
run General-1138-20140421-20:27:34-15872
attr D costprob0.1
attr F nrr
attr R lru
attr a 0.8
attr configname General
attr csize 10
attr ctlg 10^3
attr datetime 20140421-20:27:34
attr experiment General
attr inifile omnetpp.ini
attr iterationvars "$net=simple_scenario, $rep=24, $priceratiovalue=10, $a=0.8, $ctlg=10^3, $F=nrr, $ttl=1000, $D=costprob0.1, $R=lru, $csize=10"
attr iterationvars2 "$net=simple_scenario, $rep=24, $priceratiovalue=10, $a=0.8, $ctlg=10^3, $F=nrr, $ttl=1000, $D=costprob0.1, $R=lru, $csize=10, $repetition=0"
attr measurement "$net=simple_scenario, $rep=24, $priceratiovalue=10, $a=0.8, $ctlg=10^3, $F=nrr, $ttl=1000, $D=costprob0.1, $R=lru, $csize=10"
attr net simple_scenario
attr network networks.${net=simple_scenario}_network
attr priceratiovalue 10
attr processid 15872
attr rep 24
attr repetition 0
attr replication #0
attr resultdir results
attr runnumber 1138
attr seedset 24
attr ttl 1000

scalar . 	a 	0.8
scalar . 	csize 	10
scalar . 	priceratiovalue 	10
scalar . 	rep 	24
scalar . 	ttl 	1000
scalar simple_scenario_network.content_distribution 	repo-0 	3
scalar simple_scenario_network.content_distribution 	repo-1 	4
scalar simple_scenario_network.content_distribution 	client-0 	0
scalar simple_scenario_network.content_distribution 	repo-0_card 	506
scalar simple_scenario_network.content_distribution 	repo-1_card 	494
scalar simple_scenario_network.statistics 	p_hit 	0.097288411404281
scalar simple_scenario_network.statistics 	interests 	96356.8
scalar simple_scenario_network.statistics 	data 	60261.8
scalar simple_scenario_network.statistics 	hdistance 	2.4098185344231
scalar simple_scenario_network.statistics 	avg_time 	0.001998043122
scalar simple_scenario_network.statistics 	downloads 	180475
scalar simple_scenario_network.statistics 	total_cost 	71447
scalar simple_scenario_network.node[0].core_layer 	interests[0] 	180475
scalar simple_scenario_network.node[0].core_layer 	data[0] 	167706
scalar simple_scenario_network.node[0].core_layer 	repo_int[0] 	133603
scalar simple_scenario_network.node[0].content_store 	p_hit[0] 	0.070752181742624
scalar simple_scenario_network.node[0].content_store 	hits[0] 	12769
scalar simple_scenario_network.node[0].content_store 	misses[0] 	167706
scalar simple_scenario_network.node[1].core_layer 	interests[1] 	83781
scalar simple_scenario_network.node[1].core_layer 	data[1] 	61122
scalar simple_scenario_network.node[1].content_store 	p_hit[1] 	0.27045511512157
scalar simple_scenario_network.node[1].content_store 	hits[1] 	22659
scalar simple_scenario_network.node[1].content_store 	misses[1] 	61122
scalar simple_scenario_network.node[2].core_layer 	interests[2] 	83925
scalar simple_scenario_network.node[2].core_layer 	data[2] 	72481
scalar simple_scenario_network.node[2].content_store 	p_hit[2] 	0.13635984509979
scalar simple_scenario_network.node[2].content_store 	hits[2] 	11444
scalar simple_scenario_network.node[2].content_store 	misses[2] 	72481
scalar simple_scenario_network.node[3].core_layer 	interests[3] 	61122
scalar simple_scenario_network.node[3].core_layer 	repo_load[3] 	61122
scalar simple_scenario_network.node[3].core_layer 	data[3] 	0
scalar simple_scenario_network.node[3].content_store 	p_hit[3] 	0
scalar simple_scenario_network.node[3].content_store 	hits[3] 	0
scalar simple_scenario_network.node[3].content_store 	misses[3] 	61122
scalar simple_scenario_network.node[4].core_layer 	interests[4] 	72481
scalar simple_scenario_network.node[4].core_layer 	repo_load[4] 	72481
scalar simple_scenario_network.node[4].core_layer 	data[4] 	0
scalar simple_scenario_network.node[4].content_store 	p_hit[4] 	0
scalar simple_scenario_network.node[4].content_store 	hits[4] 	0
scalar simple_scenario_network.node[4].content_store 	misses[4] 	72481
scalar simple_scenario_network.client[0] 	hdistance[0] 	2.4098185344231
scalar simple_scenario_network.client[0] 	downloads[0] 	180475
scalar simple_scenario_network.client[0] 	avg_time[0] 	0.001998043122
