version 2
run General-823-20140502-02:38:10-9722
attr D fix0.05
attr F nrr
attr R lru
attr a 1.2
attr configname General
attr csize 1e3
attr ctlg 1e5
attr datetime 20140502-02:38:10
attr experiment General
attr inifile omnetpp.ini
attr iterationvars "$net=three_caches_scenario_3_links, $rep=2, $priceratiovalue=2, $weights=0.7_0.15_0.15, $a=1.2, $ctlg=1e5, $F=nrr, $ttl=1000, $D=fix0.05, $xi=1, $R=lru, $csize=1e3"
attr iterationvars2 "$net=three_caches_scenario_3_links, $rep=2, $priceratiovalue=2, $weights=0.7_0.15_0.15, $a=1.2, $ctlg=1e5, $F=nrr, $ttl=1000, $D=fix0.05, $xi=1, $R=lru, $csize=1e3, $repetition=0"
attr measurement "$net=three_caches_scenario_3_links, $rep=2, $priceratiovalue=2, $weights=0.7_0.15_0.15, $a=1.2, $ctlg=1e5, $F=nrr, $ttl=1000, $D=fix0.05, $xi=1, $R=lru, $csize=1e3"
attr net three_caches_scenario_3_links
attr network networks.${net=three_caches_scenario_3_links}_network
attr priceratiovalue 2
attr processid 9722
attr rep 2
attr repetition 0
attr replication #0
attr resultdir results
attr runnumber 823
attr seedset 2
attr ttl 1000
attr weights 0.7_0.15_0.15
attr xi 1

scalar . 	a 	1.2
scalar . 	csize 	1e3
scalar . 	ctlg 	1e5
scalar . 	priceratiovalue 	2
scalar . 	rep 	2
scalar . 	ttl 	1000
scalar . 	xi 	1
scalar three_caches_scenario_3_links_network.content_distribution 	repo-0 	4
scalar three_caches_scenario_3_links_network.content_distribution 	repo-1 	5
scalar three_caches_scenario_3_links_network.content_distribution 	repo-2 	6
scalar three_caches_scenario_3_links_network.content_distribution 	client-0 	0
scalar three_caches_scenario_3_links_network.content_distribution 	repo-0_card 	69917
scalar three_caches_scenario_3_links_network.content_distribution 	repo-1_card 	15037
scalar three_caches_scenario_3_links_network.content_distribution 	repo-2_card 	15046
scalar three_caches_scenario_3_links_network.statistics 	p_hit 	0.55047594079751
scalar three_caches_scenario_3_links_network.statistics 	interests 	37054.428571429
scalar three_caches_scenario_3_links_network.statistics 	data 	11362
scalar three_caches_scenario_3_links_network.statistics 	hdistance 	0.48658582016937
scalar three_caches_scenario_3_links_network.statistics 	avg_time 	0
scalar three_caches_scenario_3_links_network.statistics 	downloads 	179847
scalar three_caches_scenario_3_links_network.statistics 	total_cost 	11927
scalar three_caches_scenario_3_links_network.statistics 	total_replicas 	100000
scalar three_caches_scenario_3_links_network.statistics 	interests_sent 	179847
scalar three_caches_scenario_3_links_network.node[0].core_layer 	interests[0] 	179847
scalar three_caches_scenario_3_links_network.node[0].core_layer 	data[0] 	42470
scalar three_caches_scenario_3_links_network.node[0].core_layer 	repo_int[0] 	37064
scalar three_caches_scenario_3_links_network.node[0].content_store 	p_hit[0] 	0.76385483216289
scalar three_caches_scenario_3_links_network.node[0].content_store 	hits[0] 	137377
scalar three_caches_scenario_3_links_network.node[0].content_store 	misses[0] 	42470
scalar three_caches_scenario_3_links_network.node[0].content_store 	decision_yes[0] 	2143
scalar three_caches_scenario_3_links_network.node[0].content_store 	decision_no[0] 	40327
scalar three_caches_scenario_3_links_network.node[1].core_layer 	interests[1] 	29087
scalar three_caches_scenario_3_links_network.node[1].core_layer 	data[1] 	29087
scalar three_caches_scenario_3_links_network.node[1].content_store 	p_hit[1] 	0
scalar three_caches_scenario_3_links_network.node[1].content_store 	hits[1] 	0
scalar three_caches_scenario_3_links_network.node[1].content_store 	misses[1] 	29087
scalar three_caches_scenario_3_links_network.node[1].content_store 	decision_yes[1] 	0
scalar three_caches_scenario_3_links_network.node[1].content_store 	decision_no[1] 	29087
scalar three_caches_scenario_3_links_network.node[2].core_layer 	interests[2] 	6855
scalar three_caches_scenario_3_links_network.node[2].core_layer 	data[2] 	4027
scalar three_caches_scenario_3_links_network.node[2].content_store 	p_hit[2] 	0.41254558716265
scalar three_caches_scenario_3_links_network.node[2].content_store 	hits[2] 	2828
scalar three_caches_scenario_3_links_network.node[2].content_store 	misses[2] 	4027
scalar three_caches_scenario_3_links_network.node[2].content_store 	decision_yes[2] 	187
scalar three_caches_scenario_3_links_network.node[2].content_store 	decision_no[2] 	3840
scalar three_caches_scenario_3_links_network.node[3].core_layer 	interests[3] 	6528
scalar three_caches_scenario_3_links_network.node[3].core_layer 	data[3] 	3950
scalar three_caches_scenario_3_links_network.node[3].content_store 	p_hit[3] 	0.39491421568627
scalar three_caches_scenario_3_links_network.node[3].content_store 	hits[3] 	2578
scalar three_caches_scenario_3_links_network.node[3].content_store 	misses[3] 	3950
scalar three_caches_scenario_3_links_network.node[3].content_store 	decision_yes[3] 	188
scalar three_caches_scenario_3_links_network.node[3].content_store 	decision_no[3] 	3762
scalar three_caches_scenario_3_links_network.node[4].core_layer 	interests[4] 	29087
scalar three_caches_scenario_3_links_network.node[4].core_layer 	repo_load[4] 	29087
scalar three_caches_scenario_3_links_network.node[4].core_layer 	data[4] 	0
scalar three_caches_scenario_3_links_network.node[4].content_store 	p_hit[4] 	0
scalar three_caches_scenario_3_links_network.node[4].content_store 	hits[4] 	0
scalar three_caches_scenario_3_links_network.node[4].content_store 	misses[4] 	29087
scalar three_caches_scenario_3_links_network.node[4].content_store 	decision_yes[4] 	0
scalar three_caches_scenario_3_links_network.node[4].content_store 	decision_no[4] 	29087
scalar three_caches_scenario_3_links_network.node[5].core_layer 	interests[5] 	4027
scalar three_caches_scenario_3_links_network.node[5].core_layer 	repo_load[5] 	4027
scalar three_caches_scenario_3_links_network.node[5].core_layer 	data[5] 	0
scalar three_caches_scenario_3_links_network.node[5].content_store 	p_hit[5] 	0
scalar three_caches_scenario_3_links_network.node[5].content_store 	hits[5] 	0
scalar three_caches_scenario_3_links_network.node[5].content_store 	misses[5] 	4027
scalar three_caches_scenario_3_links_network.node[5].content_store 	decision_yes[5] 	0
scalar three_caches_scenario_3_links_network.node[5].content_store 	decision_no[5] 	4027
scalar three_caches_scenario_3_links_network.node[6].core_layer 	interests[6] 	3950
scalar three_caches_scenario_3_links_network.node[6].core_layer 	repo_load[6] 	3950
scalar three_caches_scenario_3_links_network.node[6].core_layer 	data[6] 	0
scalar three_caches_scenario_3_links_network.node[6].content_store 	p_hit[6] 	0
scalar three_caches_scenario_3_links_network.node[6].content_store 	hits[6] 	0
scalar three_caches_scenario_3_links_network.node[6].content_store 	misses[6] 	3950
scalar three_caches_scenario_3_links_network.node[6].content_store 	decision_yes[6] 	0
scalar three_caches_scenario_3_links_network.node[6].content_store 	decision_no[6] 	3950
scalar three_caches_scenario_3_links_network.client[0] 	hdistance[0] 	0.48658582016937
scalar three_caches_scenario_3_links_network.client[0] 	downloads[0] 	179847
scalar three_caches_scenario_3_links_network.client[0] 	avg_time[0] 	0
scalar three_caches_scenario_3_links_network.client[0] 	interests_sent[0] 	179847
