version 2
run General-1441-20140422-20:09:20-28295
attr D fix0.1
attr F nrr
attr R lru
attr a 0
attr configname General
attr csize 10
attr ctlg 10^3
attr datetime 20140422-20:09:20
attr experiment General
attr inifile omnetpp.ini
attr iterationvars "$net=simple_scenario, $rep=13, $priceratiovalue=1, $a=0, $ctlg=10^3, $F=nrr, $ttl=1000, $D=fix0.1, $R=lru, $csize=10"
attr iterationvars2 "$net=simple_scenario, $rep=13, $priceratiovalue=1, $a=0, $ctlg=10^3, $F=nrr, $ttl=1000, $D=fix0.1, $R=lru, $csize=10, $repetition=0"
attr measurement "$net=simple_scenario, $rep=13, $priceratiovalue=1, $a=0, $ctlg=10^3, $F=nrr, $ttl=1000, $D=fix0.1, $R=lru, $csize=10"
attr net simple_scenario
attr network networks.${net=simple_scenario}_network
attr priceratiovalue 1
attr processid 28295
attr rep 13
attr repetition 0
attr replication #0
attr resultdir results
attr runnumber 1441
attr seedset 13
attr ttl 1000

scalar . 	a 	0
scalar . 	csize 	10
scalar . 	priceratiovalue 	1
scalar . 	rep 	13
scalar . 	ttl 	1000
scalar simple_scenario_network.content_distribution 	repo-0 	3
scalar simple_scenario_network.content_distribution 	repo-1 	4
scalar simple_scenario_network.content_distribution 	client-0 	0
scalar simple_scenario_network.content_distribution 	repo-0_card 	509
scalar simple_scenario_network.content_distribution 	repo-1_card 	491
scalar simple_scenario_network.statistics 	p_hit 	0.0098507011947679
scalar simple_scenario_network.statistics 	interests 	105962
scalar simple_scenario_network.statistics 	data 	70172.4
scalar simple_scenario_network.statistics 	hdistance 	2.9315275946085
scalar simple_scenario_network.statistics 	avg_time 	0.001999825671
scalar simple_scenario_network.statistics 	downloads 	178948
scalar simple_scenario_network.statistics 	total_cost 	86864
scalar simple_scenario_network.node[0].core_layer 	interests[0] 	178948
scalar simple_scenario_network.node[0].core_layer 	data[0] 	177133
scalar simple_scenario_network.node[0].core_layer 	repo_int[0] 	173729
scalar simple_scenario_network.node[0].content_store 	p_hit[0] 	0.010142611261372
scalar simple_scenario_network.node[0].content_store 	hits[0] 	1815
scalar simple_scenario_network.node[0].content_store 	misses[0] 	177133
scalar simple_scenario_network.node[1].core_layer 	interests[1] 	90165
scalar simple_scenario_network.node[1].core_layer 	data[1] 	88473
scalar simple_scenario_network.node[1].content_store 	p_hit[1] 	0.018765596406588
scalar simple_scenario_network.node[1].content_store 	hits[1] 	1692
scalar simple_scenario_network.node[1].content_store 	misses[1] 	88473
scalar simple_scenario_network.node[2].core_layer 	interests[2] 	86968
scalar simple_scenario_network.node[2].core_layer 	data[2] 	85256
scalar simple_scenario_network.node[2].content_store 	p_hit[2] 	0.019685401526998
scalar simple_scenario_network.node[2].content_store 	hits[2] 	1712
scalar simple_scenario_network.node[2].content_store 	misses[2] 	85256
scalar simple_scenario_network.node[3].core_layer 	interests[3] 	88473
scalar simple_scenario_network.node[3].core_layer 	repo_load[3] 	88473
scalar simple_scenario_network.node[3].core_layer 	data[3] 	0
scalar simple_scenario_network.node[3].content_store 	p_hit[3] 	0
scalar simple_scenario_network.node[3].content_store 	hits[3] 	0
scalar simple_scenario_network.node[3].content_store 	misses[3] 	88473
scalar simple_scenario_network.node[4].core_layer 	interests[4] 	85256
scalar simple_scenario_network.node[4].core_layer 	repo_load[4] 	85256
scalar simple_scenario_network.node[4].core_layer 	data[4] 	0
scalar simple_scenario_network.node[4].content_store 	p_hit[4] 	0
scalar simple_scenario_network.node[4].content_store 	hits[4] 	0
scalar simple_scenario_network.node[4].content_store 	misses[4] 	85256
scalar simple_scenario_network.client[0] 	hdistance[0] 	2.9315275946085
scalar simple_scenario_network.client[0] 	downloads[0] 	178948
scalar simple_scenario_network.client[0] 	avg_time[0] 	0.001999825671
