version 2
run General-1-20140703-16:02:53-5207
attr D lce
attr F nrr
attr R lru
attr a 0.8
attr configname General
attr csize 1e3
attr ctlg 1e5
attr datetime 20140703-16:02:53
attr experiment General
attr inifile omnetpp.ini
attr iterationvars "$net=geant_cost, $rep=1, $priceratiovalue=10, $weights=0.333_0.333_0.334, $lambda=100, $a=0.8, $ctlg=1e5, $F=nrr, $ttl=1000, $D=lce, $xi=1, $R=lru, $csize=1e3, $pricebits=0, $window=60, $variance=0.05, $mytime=1800"
attr iterationvars2 "$net=geant_cost, $rep=1, $priceratiovalue=10, $weights=0.333_0.333_0.334, $lambda=100, $a=0.8, $ctlg=1e5, $F=nrr, $ttl=1000, $D=lce, $xi=1, $R=lru, $csize=1e3, $pricebits=0, $window=60, $variance=0.05, $mytime=1800, $repetition=0"
attr lambda 100
attr measurement "$net=geant_cost, $rep=1, $priceratiovalue=10, $weights=0.333_0.333_0.334, $lambda=100, $a=0.8, $ctlg=1e5, $F=nrr, $ttl=1000, $D=lce, $xi=1, $R=lru, $csize=1e3, $pricebits=0, $window=60, $variance=0.05, $mytime=1800"
attr mytime 1800
attr net geant_cost
attr network "networks.${net=geant_cost, abilene_cost}_network"
attr pricebits 0
attr priceratiovalue 10
attr processid 5207
attr rep 1
attr repetition 0
attr replication #0
attr resultdir results
attr runnumber 1
attr seedset 1
attr ttl 1000
attr variance 0.05
attr weights 0.333_0.333_0.334
attr window 60
attr xi 1

scalar . 	a 	0.8
scalar . 	csize 	1e3
scalar . 	ctlg 	1e5
scalar . 	lambda 	100
scalar . 	mytime 	1800
scalar . 	pricebits 	0
scalar . 	priceratiovalue 	10
scalar . 	rep 	1
scalar . 	ttl 	1000
scalar . 	variance 	0.05
scalar . 	window 	60
scalar . 	xi 	1
scalar geant_cost_network.content_distribution 	repo-0 	22
scalar geant_cost_network.content_distribution 	repo-1 	23
scalar geant_cost_network.content_distribution 	repo-2 	24
scalar geant_cost_network.content_distribution 	client-0 	20
scalar geant_cost_network.content_distribution 	client-1 	10
scalar geant_cost_network.content_distribution 	client-2 	12
scalar geant_cost_network.content_distribution 	client-3 	9
scalar geant_cost_network.content_distribution 	client-4 	5
scalar geant_cost_network.content_distribution 	repo-0_card 	33396
scalar geant_cost_network.content_distribution 	repo-1_card 	33039
scalar geant_cost_network.content_distribution 	repo-2_card 	33565
scalar geant_cost_network.statistics 	repo_popularity[0] 	0.32138981014208
scalar geant_cost_network.statistics 	repo_popularity[1] 	0.31688252633552
scalar geant_cost_network.statistics 	repo_popularity[2] 	0.3617276635224
scalar geant_cost_network.node[7].face$o[4].channel 	price[7] 	0
scalar geant_cost_network.node[7].face$o[4].channel 	represented_price[7] 	0
scalar geant_cost_network.node[8].face$o[3].channel 	price[8] 	0
scalar geant_cost_network.node[8].face$o[3].channel 	represented_price[8] 	0
scalar geant_cost_network.node[21].face$o[5].channel 	price[21] 	0
scalar geant_cost_network.node[21].face$o[5].channel 	represented_price[21] 	0
scalar geant_cost_network.node[22].face$o[1].channel 	price[22] 	0
scalar geant_cost_network.node[22].face$o[1].channel 	represented_price[22] 	0
scalar geant_cost_network.node[23].face$o[1].channel 	price[23] 	1
scalar geant_cost_network.node[23].face$o[1].channel 	represented_price[23] 	1
scalar geant_cost_network.node[24].face$o[1].channel 	price[24] 	10
scalar geant_cost_network.node[24].face$o[1].channel 	represented_price[24] 	10
scalar geant_cost_network.statistics 	p_hit 	0.040977704066599
scalar geant_cost_network.statistics 	interests 	2952351.84
scalar geant_cost_network.statistics 	data 	2264144.28
scalar geant_cost_network.statistics 	hdistance 	4.1180924054987
scalar geant_cost_network.statistics 	avg_time 	0.008414297084
scalar geant_cost_network.statistics 	downloads 	17185121
scalar geant_cost_network.statistics 	total_cost 	51680254
scalar geant_cost_network.statistics 	total_replicas 	100000
scalar geant_cost_network.statistics 	inner_hit 	0.1772561275536
scalar geant_cost_network.statistics 	interests_sent 	17205184
scalar geant_cost_network.node[0].core_layer 	interests[0] 	0
scalar geant_cost_network.node[0].core_layer 	data[0] 	0
scalar geant_cost_network.node[0].core_layer 	repo_int[0] 	14138953
scalar geant_cost_network.node[0].content_store 	p_hit[0] 	-nan
scalar geant_cost_network.node[0].content_store 	hits[0] 	0
scalar geant_cost_network.node[0].content_store 	misses[0] 	0
scalar geant_cost_network.node[0].content_store 	decision_yes[0] 	0
scalar geant_cost_network.node[0].content_store 	decision_no[0] 	0
scalar geant_cost_network.node[0].content_store 	decision_ratio[0] 	0
scalar geant_cost_network.node[1].core_layer 	interests[1] 	0
scalar geant_cost_network.node[1].core_layer 	data[1] 	0
scalar geant_cost_network.node[1].content_store 	p_hit[1] 	-nan
scalar geant_cost_network.node[1].content_store 	hits[1] 	0
scalar geant_cost_network.node[1].content_store 	misses[1] 	0
scalar geant_cost_network.node[1].content_store 	decision_yes[1] 	0
scalar geant_cost_network.node[1].content_store 	decision_no[1] 	0
scalar geant_cost_network.node[1].content_store 	decision_ratio[1] 	0
scalar geant_cost_network.node[2].core_layer 	interests[2] 	0
scalar geant_cost_network.node[2].core_layer 	data[2] 	0
scalar geant_cost_network.node[2].content_store 	p_hit[2] 	-nan
scalar geant_cost_network.node[2].content_store 	hits[2] 	0
scalar geant_cost_network.node[2].content_store 	misses[2] 	0
scalar geant_cost_network.node[2].content_store 	decision_yes[2] 	0
scalar geant_cost_network.node[2].content_store 	decision_no[2] 	0
scalar geant_cost_network.node[2].content_store 	decision_ratio[2] 	0
scalar geant_cost_network.node[3].core_layer 	interests[3] 	3873299
scalar geant_cost_network.node[3].core_layer 	data[3] 	3847282
scalar geant_cost_network.node[3].content_store 	p_hit[3] 	0.0067170130681881
scalar geant_cost_network.node[3].content_store 	hits[3] 	26017
scalar geant_cost_network.node[3].content_store 	misses[3] 	3847282
scalar geant_cost_network.node[3].content_store 	decision_yes[3] 	3847020
scalar geant_cost_network.node[3].content_store 	decision_no[3] 	0
scalar geant_cost_network.node[3].content_store 	decision_ratio[3] 	1
scalar geant_cost_network.node[4].core_layer 	interests[4] 	5859320
scalar geant_cost_network.node[4].core_layer 	data[4] 	5849229
scalar geant_cost_network.node[4].content_store 	p_hit[4] 	0.0017177761241919
scalar geant_cost_network.node[4].content_store 	hits[4] 	10065
scalar geant_cost_network.node[4].content_store 	misses[4] 	5849255
scalar geant_cost_network.node[4].content_store 	decision_yes[4] 	5848946
scalar geant_cost_network.node[4].content_store 	decision_no[4] 	0
scalar geant_cost_network.node[4].content_store 	decision_ratio[4] 	1
scalar geant_cost_network.node[5].core_layer 	interests[5] 	3472636
scalar geant_cost_network.node[5].core_layer 	data[5] 	3312516
scalar geant_cost_network.node[5].content_store 	p_hit[5] 	0.045051079352976
scalar geant_cost_network.node[5].content_store 	hits[5] 	156446
scalar geant_cost_network.node[5].content_store 	misses[5] 	3316190
scalar geant_cost_network.node[5].content_store 	decision_yes[5] 	3312516
scalar geant_cost_network.node[5].content_store 	decision_no[5] 	0
scalar geant_cost_network.node[5].content_store 	decision_ratio[5] 	1
scalar geant_cost_network.node[6].core_layer 	interests[6] 	1921273
scalar geant_cost_network.node[6].core_layer 	data[6] 	1892471
scalar geant_cost_network.node[6].content_store 	p_hit[6] 	0.014990581765319
scalar geant_cost_network.node[6].content_store 	hits[6] 	28801
scalar geant_cost_network.node[6].content_store 	misses[6] 	1892472
scalar geant_cost_network.node[6].content_store 	decision_yes[6] 	1892471
scalar geant_cost_network.node[6].content_store 	decision_no[6] 	0
scalar geant_cost_network.node[6].content_store 	decision_ratio[6] 	1
scalar geant_cost_network.node[7].core_layer 	interests[7] 	6663393
scalar geant_cost_network.node[7].core_layer 	data[7] 	6646715
scalar geant_cost_network.node[7].content_store 	p_hit[7] 	0.0024994773683617
scalar geant_cost_network.node[7].content_store 	hits[7] 	16655
scalar geant_cost_network.node[7].content_store 	misses[7] 	6646738
scalar geant_cost_network.node[7].content_store 	decision_yes[7] 	6646540
scalar geant_cost_network.node[7].content_store 	decision_no[7] 	0
scalar geant_cost_network.node[7].content_store 	decision_ratio[7] 	1
scalar geant_cost_network.node[8].core_layer 	interests[8] 	6629994
scalar geant_cost_network.node[8].core_layer 	data[8] 	6612416
scalar geant_cost_network.node[8].content_store 	p_hit[8] 	0.0026512844506345
scalar geant_cost_network.node[8].content_store 	hits[8] 	17578
scalar geant_cost_network.node[8].content_store 	misses[8] 	6612416
scalar geant_cost_network.node[8].content_store 	decision_yes[8] 	6612276
scalar geant_cost_network.node[8].content_store 	decision_no[8] 	0
scalar geant_cost_network.node[8].content_store 	decision_ratio[8] 	1
scalar geant_cost_network.node[9].core_layer 	interests[9] 	7697962
scalar geant_cost_network.node[9].core_layer 	data[9] 	7528978
scalar geant_cost_network.node[9].content_store 	p_hit[9] 	0.020593762349048
scalar geant_cost_network.node[9].content_store 	hits[9] 	158530
scalar geant_cost_network.node[9].content_store 	misses[9] 	7539432
scalar geant_cost_network.node[9].content_store 	decision_yes[9] 	7528414
scalar geant_cost_network.node[9].content_store 	decision_no[9] 	0
scalar geant_cost_network.node[9].content_store 	decision_ratio[9] 	1
scalar geant_cost_network.node[10].core_layer 	interests[10] 	3513530
scalar geant_cost_network.node[10].core_layer 	data[10] 	3291851
scalar geant_cost_network.node[10].content_store 	p_hit[10] 	0.061971009212957
scalar geant_cost_network.node[10].content_store 	hits[10] 	217737
scalar geant_cost_network.node[10].content_store 	misses[10] 	3295793
scalar geant_cost_network.node[10].content_store 	decision_yes[10] 	3291851
scalar geant_cost_network.node[10].content_store 	decision_no[10] 	0
scalar geant_cost_network.node[10].content_store 	decision_ratio[10] 	1
scalar geant_cost_network.node[11].core_layer 	interests[11] 	0
scalar geant_cost_network.node[11].core_layer 	data[11] 	0
scalar geant_cost_network.node[11].content_store 	p_hit[11] 	-nan
scalar geant_cost_network.node[11].content_store 	hits[11] 	0
scalar geant_cost_network.node[11].content_store 	misses[11] 	0
scalar geant_cost_network.node[11].content_store 	decision_yes[11] 	0
scalar geant_cost_network.node[11].content_store 	decision_no[11] 	0
scalar geant_cost_network.node[11].content_store 	decision_ratio[11] 	0
scalar geant_cost_network.node[12].core_layer 	interests[12] 	6180837
scalar geant_cost_network.node[12].core_layer 	data[12] 	5889334
scalar geant_cost_network.node[12].content_store 	p_hit[12] 	0.04421828305778
scalar geant_cost_network.node[12].content_store 	hits[12] 	273306
scalar geant_cost_network.node[12].content_store 	misses[12] 	5907531
scalar geant_cost_network.node[12].content_store 	decision_yes[12] 	5889257
scalar geant_cost_network.node[12].content_store 	decision_no[12] 	0
scalar geant_cost_network.node[12].content_store 	decision_ratio[12] 	1
scalar geant_cost_network.node[13].core_layer 	interests[13] 	799373
scalar geant_cost_network.node[13].core_layer 	data[13] 	14941
scalar geant_cost_network.node[13].content_store 	p_hit[13] 	0.98130910100791
scalar geant_cost_network.node[13].content_store 	hits[13] 	784432
scalar geant_cost_network.node[13].content_store 	misses[13] 	14941
scalar geant_cost_network.node[13].content_store 	decision_yes[13] 	14941
scalar geant_cost_network.node[13].content_store 	decision_no[13] 	0
scalar geant_cost_network.node[13].content_store 	decision_ratio[13] 	1
scalar geant_cost_network.node[14].core_layer 	interests[14] 	1638919
scalar geant_cost_network.node[14].core_layer 	data[14] 	1381166
scalar geant_cost_network.node[14].content_store 	p_hit[14] 	0.15575510443164
scalar geant_cost_network.node[14].content_store 	hits[14] 	255270
scalar geant_cost_network.node[14].content_store 	misses[14] 	1383649
scalar geant_cost_network.node[14].content_store 	decision_yes[14] 	1381128
scalar geant_cost_network.node[14].content_store 	decision_no[14] 	0
scalar geant_cost_network.node[14].content_store 	decision_ratio[14] 	1
scalar geant_cost_network.node[15].core_layer 	interests[15] 	869570
scalar geant_cost_network.node[15].core_layer 	data[15] 	113
scalar geant_cost_network.node[15].content_store 	p_hit[15] 	0.99987005071472
scalar geant_cost_network.node[15].content_store 	hits[15] 	869457
scalar geant_cost_network.node[15].content_store 	misses[15] 	113
scalar geant_cost_network.node[15].content_store 	decision_yes[15] 	113
scalar geant_cost_network.node[15].content_store 	decision_no[15] 	0
scalar geant_cost_network.node[15].content_store 	decision_ratio[15] 	1
scalar geant_cost_network.node[16].core_layer 	interests[16] 	0
scalar geant_cost_network.node[16].core_layer 	data[16] 	0
scalar geant_cost_network.node[16].content_store 	p_hit[16] 	-nan
scalar geant_cost_network.node[16].content_store 	hits[16] 	0
scalar geant_cost_network.node[16].content_store 	misses[16] 	0
scalar geant_cost_network.node[16].content_store 	decision_yes[16] 	0
scalar geant_cost_network.node[16].content_store 	decision_no[16] 	0
scalar geant_cost_network.node[16].content_store 	decision_ratio[16] 	0
scalar geant_cost_network.node[17].core_layer 	interests[17] 	0
scalar geant_cost_network.node[17].core_layer 	data[17] 	0
scalar geant_cost_network.node[17].content_store 	p_hit[17] 	-nan
scalar geant_cost_network.node[17].content_store 	hits[17] 	0
scalar geant_cost_network.node[17].content_store 	misses[17] 	0
scalar geant_cost_network.node[17].content_store 	decision_yes[17] 	0
scalar geant_cost_network.node[17].content_store 	decision_no[17] 	0
scalar geant_cost_network.node[17].content_store 	decision_ratio[17] 	0
scalar geant_cost_network.node[18].core_layer 	interests[18] 	2388845
scalar geant_cost_network.node[18].core_layer 	data[18] 	2332387
scalar geant_cost_network.node[18].content_store 	p_hit[18] 	0.023633178376998
scalar geant_cost_network.node[18].content_store 	hits[18] 	56456
scalar geant_cost_network.node[18].content_store 	misses[18] 	2332389
scalar geant_cost_network.node[18].content_store 	decision_yes[18] 	2332386
scalar geant_cost_network.node[18].content_store 	decision_no[18] 	0
scalar geant_cost_network.node[18].content_store 	decision_ratio[18] 	1
scalar geant_cost_network.node[19].core_layer 	interests[19] 	0
scalar geant_cost_network.node[19].core_layer 	data[19] 	0
scalar geant_cost_network.node[19].content_store 	p_hit[19] 	-nan
scalar geant_cost_network.node[19].content_store 	hits[19] 	0
scalar geant_cost_network.node[19].content_store 	misses[19] 	0
scalar geant_cost_network.node[19].content_store 	decision_yes[19] 	0
scalar geant_cost_network.node[19].content_store 	decision_no[19] 	0
scalar geant_cost_network.node[19].content_store 	decision_ratio[19] 	0
scalar geant_cost_network.node[20].core_layer 	interests[20] 	3446031
scalar geant_cost_network.node[20].core_layer 	data[20] 	3305159
scalar geant_cost_network.node[20].content_store 	p_hit[20] 	0.040032431513239
scalar geant_cost_network.node[20].content_store 	hits[20] 	137953
scalar geant_cost_network.node[20].content_store 	misses[20] 	3308078
scalar geant_cost_network.node[20].content_store 	decision_yes[20] 	3305159
scalar geant_cost_network.node[20].content_store 	decision_no[20] 	0
scalar geant_cost_network.node[20].content_store 	decision_ratio[20] 	1
scalar geant_cost_network.node[21].core_layer 	interests[21] 	4714861
scalar geant_cost_network.node[21].core_layer 	data[21] 	4699049
scalar geant_cost_network.node[21].content_store 	p_hit[21] 	0.003353651358969
scalar geant_cost_network.node[21].content_store 	hits[21] 	15812
scalar geant_cost_network.node[21].content_store 	misses[21] 	4699049
scalar geant_cost_network.node[21].content_store 	decision_yes[21] 	4699049
scalar geant_cost_network.node[21].content_store 	decision_no[21] 	0
scalar geant_cost_network.node[21].content_store 	decision_ratio[21] 	1
scalar geant_cost_network.node[22].core_layer 	interests[22] 	4750140
scalar geant_cost_network.node[22].core_layer 	repo_load[22] 	4750140
scalar geant_cost_network.node[22].core_layer 	data[22] 	0
scalar geant_cost_network.node[22].content_store 	p_hit[22] 	0
scalar geant_cost_network.node[22].content_store 	hits[22] 	0
scalar geant_cost_network.node[22].content_store 	misses[22] 	4750140
scalar geant_cost_network.node[22].content_store 	decision_yes[22] 	0
scalar geant_cost_network.node[22].content_store 	decision_no[22] 	4750140
scalar geant_cost_network.node[22].content_store 	decision_ratio[22] 	0
scalar geant_cost_network.node[23].core_layer 	interests[23] 	4689764
scalar geant_cost_network.node[23].core_layer 	repo_load[23] 	4689764
scalar geant_cost_network.node[23].core_layer 	data[23] 	0
scalar geant_cost_network.node[23].content_store 	p_hit[23] 	0
scalar geant_cost_network.node[23].content_store 	hits[23] 	0
scalar geant_cost_network.node[23].content_store 	misses[23] 	4689764
scalar geant_cost_network.node[23].content_store 	decision_yes[23] 	0
scalar geant_cost_network.node[23].content_store 	decision_no[23] 	4689764
scalar geant_cost_network.node[23].content_store 	decision_ratio[23] 	0
scalar geant_cost_network.node[24].core_layer 	interests[24] 	4699049
scalar geant_cost_network.node[24].core_layer 	repo_load[24] 	4699049
scalar geant_cost_network.node[24].core_layer 	data[24] 	0
scalar geant_cost_network.node[24].content_store 	p_hit[24] 	0
scalar geant_cost_network.node[24].content_store 	hits[24] 	0
scalar geant_cost_network.node[24].content_store 	misses[24] 	4699049
scalar geant_cost_network.node[24].content_store 	decision_yes[24] 	0
scalar geant_cost_network.node[24].content_store 	decision_no[24] 	4699049
scalar geant_cost_network.node[24].content_store 	decision_ratio[24] 	0
scalar geant_cost_network.client[5] 	hdistance[5] 	3.8018878107837
scalar geant_cost_network.client[5] 	downloads[5] 	3436997
scalar geant_cost_network.client[5] 	avg_time[5] 	0.011522509651
scalar geant_cost_network.client[5] 	interests_sent[5] 	3440666
scalar geant_cost_network.client[9] 	hdistance[9] 	3.830003062552
scalar geant_cost_network.client[9] 	downloads[9] 	3438309
scalar geant_cost_network.client[9] 	avg_time[9] 	0.006385396572
scalar geant_cost_network.client[9] 	interests_sent[9] 	3441981
scalar geant_cost_network.client[10] 	hdistance[10] 	4.766666074848
scalar geant_cost_network.client[10] 	downloads[10] 	3435737
scalar geant_cost_network.client[10] 	avg_time[10] 	0.008254347852
scalar geant_cost_network.client[10] 	interests_sent[10] 	3439678
scalar geant_cost_network.client[12] 	hdistance[12] 	3.9898971192157
scalar geant_cost_network.client[12] 	downloads[12] 	3434169
scalar geant_cost_network.client[12] 	avg_time[12] 	0.007406255771
scalar geant_cost_network.client[12] 	interests_sent[12] 	3440031
scalar geant_cost_network.client[20] 	hdistance[20] 	4.2020079600942
scalar geant_cost_network.client[20] 	downloads[20] 	3439909
scalar geant_cost_network.client[20] 	avg_time[20] 	0.008502975575
scalar geant_cost_network.client[20] 	interests_sent[20] 	3442828
