version 2
run General-28-20140515-19:52:27-11011
attr D costprobprodcorr0.01
attr F nrr
attr R lru
attr a 1
attr configname General
attr csize 1e6
attr ctlg 1e8
attr datetime 20140515-19:52:27
attr experiment General
attr inifile omnetpp.ini
attr iterationvars "$net=one_cache_scenario_3_links, $rep=10, $priceratiovalue=10, $weights=0.333_0.333_0.334, $a=1, $ctlg=1e8, $F=nrr, $ttl=1000, $D=costprobprodcorr0.01, $xi=1, $R=lru, $csize=1e6, $q=0"
attr iterationvars2 "$net=one_cache_scenario_3_links, $rep=10, $priceratiovalue=10, $weights=0.333_0.333_0.334, $a=1, $ctlg=1e8, $F=nrr, $ttl=1000, $D=costprobprodcorr0.01, $xi=1, $R=lru, $csize=1e6, $q=0, $repetition=0"
attr measurement "$net=one_cache_scenario_3_links, $rep=10, $priceratiovalue=10, $weights=0.333_0.333_0.334, $a=1, $ctlg=1e8, $F=nrr, $ttl=1000, $D=costprobprodcorr0.01, $xi=1, $R=lru, $csize=1e6, $q=0"
attr net one_cache_scenario_3_links
attr network networks.${net=one_cache_scenario_3_links}_network
attr priceratiovalue 10
attr processid 11011
attr q 0
attr rep 10
attr repetition 0
attr replication #0
attr resultdir results
attr runnumber 28
attr seedset 10
attr ttl 1000
attr weights 0.333_0.333_0.334
attr xi 1

scalar . 	a 	1
scalar . 	csize 	1e6
scalar . 	ctlg 	1e8
scalar . 	priceratiovalue 	10
scalar . 	q 	0
scalar . 	rep 	10
scalar . 	ttl 	1000
scalar . 	xi 	1
scalar one_cache_scenario_3_links_network.content_distribution 	repo-0 	4
scalar one_cache_scenario_3_links_network.content_distribution 	repo-1 	5
scalar one_cache_scenario_3_links_network.content_distribution 	repo-2 	6
scalar one_cache_scenario_3_links_network.content_distribution 	client-0 	0
scalar one_cache_scenario_3_links_network.content_distribution 	repo-0_card 	33291100
scalar one_cache_scenario_3_links_network.content_distribution 	repo-1_card 	33308979
scalar one_cache_scenario_3_links_network.content_distribution 	repo-2_card 	33399921
scalar one_cache_scenario_3_links_network.statistics 	p_hit 	0.15125805806085
scalar one_cache_scenario_3_links_network.statistics 	interests 	59229931.571429
scalar one_cache_scenario_3_links_network.statistics 	data 	33513951.428571
scalar one_cache_scenario_3_links_network.statistics 	hdistance 	1.3032344574228
scalar one_cache_scenario_3_links_network.statistics 	avg_time 	0
scalar one_cache_scenario_3_links_network.statistics 	downloads 	180011861
scalar one_cache_scenario_3_links_network.statistics 	total_cost 	226088131
scalar one_cache_scenario_3_links_network.statistics 	total_replicas 	100000000
scalar one_cache_scenario_3_links_network.statistics 	interests_sent 	180011861
scalar one_cache_scenario_3_links_network.node[0].core_layer 	interests[0] 	180011861
scalar one_cache_scenario_3_links_network.node[0].core_layer 	data[0] 	117298830
scalar one_cache_scenario_3_links_network.node[0].core_layer 	repo_int[0] 	117298830
scalar one_cache_scenario_3_links_network.node[0].content_store 	p_hit[0] 	0.34838277128861
scalar one_cache_scenario_3_links_network.node[0].content_store 	hits[0] 	62713031
scalar one_cache_scenario_3_links_network.node[0].content_store 	misses[0] 	117298830
scalar one_cache_scenario_3_links_network.node[0].content_store 	decision_yes[0] 	615738
scalar one_cache_scenario_3_links_network.node[0].content_store 	decision_no[0] 	116683092
scalar one_cache_scenario_3_links_network.node[0].content_store 	decision_ratio[0] 	0.0052493106708737
scalar one_cache_scenario_3_links_network.node[0].content_store 	correction_factor[0] 	0.0027225701061802
scalar one_cache_scenario_3_links_network.node[0].content_store 	xi[0] 	1
scalar one_cache_scenario_3_links_network.node[1].core_layer 	interests[1] 	70282277
scalar one_cache_scenario_3_links_network.node[1].core_layer 	data[1] 	70282277
scalar one_cache_scenario_3_links_network.node[1].content_store 	p_hit[1] 	0
scalar one_cache_scenario_3_links_network.node[1].content_store 	hits[1] 	0
scalar one_cache_scenario_3_links_network.node[1].content_store 	misses[1] 	70282277
scalar one_cache_scenario_3_links_network.node[1].content_store 	decision_yes[1] 	0
scalar one_cache_scenario_3_links_network.node[1].content_store 	decision_no[1] 	70282277
scalar one_cache_scenario_3_links_network.node[1].content_store 	decision_ratio[1] 	0
scalar one_cache_scenario_3_links_network.node[2].core_layer 	interests[2] 	27119711
scalar one_cache_scenario_3_links_network.node[2].core_layer 	data[2] 	27119711
scalar one_cache_scenario_3_links_network.node[2].content_store 	p_hit[2] 	0
scalar one_cache_scenario_3_links_network.node[2].content_store 	hits[2] 	0
scalar one_cache_scenario_3_links_network.node[2].content_store 	misses[2] 	27119711
scalar one_cache_scenario_3_links_network.node[2].content_store 	decision_yes[2] 	0
scalar one_cache_scenario_3_links_network.node[2].content_store 	decision_no[2] 	27119711
scalar one_cache_scenario_3_links_network.node[2].content_store 	decision_ratio[2] 	0
scalar one_cache_scenario_3_links_network.node[3].core_layer 	interests[3] 	19896842
scalar one_cache_scenario_3_links_network.node[3].core_layer 	data[3] 	19896842
scalar one_cache_scenario_3_links_network.node[3].content_store 	p_hit[3] 	0
scalar one_cache_scenario_3_links_network.node[3].content_store 	hits[3] 	0
scalar one_cache_scenario_3_links_network.node[3].content_store 	misses[3] 	19896842
scalar one_cache_scenario_3_links_network.node[3].content_store 	decision_yes[3] 	0
scalar one_cache_scenario_3_links_network.node[3].content_store 	decision_no[3] 	19896842
scalar one_cache_scenario_3_links_network.node[3].content_store 	decision_ratio[3] 	0
scalar one_cache_scenario_3_links_network.node[4].core_layer 	interests[4] 	70282277
scalar one_cache_scenario_3_links_network.node[4].core_layer 	repo_load[4] 	70282277
scalar one_cache_scenario_3_links_network.node[4].core_layer 	data[4] 	0
scalar one_cache_scenario_3_links_network.node[4].content_store 	p_hit[4] 	0
scalar one_cache_scenario_3_links_network.node[4].content_store 	hits[4] 	0
scalar one_cache_scenario_3_links_network.node[4].content_store 	misses[4] 	70282277
scalar one_cache_scenario_3_links_network.node[4].content_store 	decision_yes[4] 	0
scalar one_cache_scenario_3_links_network.node[4].content_store 	decision_no[4] 	70282277
scalar one_cache_scenario_3_links_network.node[4].content_store 	decision_ratio[4] 	0
scalar one_cache_scenario_3_links_network.node[5].core_layer 	interests[5] 	27119711
scalar one_cache_scenario_3_links_network.node[5].core_layer 	repo_load[5] 	27119711
scalar one_cache_scenario_3_links_network.node[5].core_layer 	data[5] 	0
scalar one_cache_scenario_3_links_network.node[5].content_store 	p_hit[5] 	0
scalar one_cache_scenario_3_links_network.node[5].content_store 	hits[5] 	0
scalar one_cache_scenario_3_links_network.node[5].content_store 	misses[5] 	27119711
scalar one_cache_scenario_3_links_network.node[5].content_store 	decision_yes[5] 	0
scalar one_cache_scenario_3_links_network.node[5].content_store 	decision_no[5] 	27119711
scalar one_cache_scenario_3_links_network.node[5].content_store 	decision_ratio[5] 	0
scalar one_cache_scenario_3_links_network.node[6].core_layer 	interests[6] 	19896842
scalar one_cache_scenario_3_links_network.node[6].core_layer 	repo_load[6] 	19896842
scalar one_cache_scenario_3_links_network.node[6].core_layer 	data[6] 	0
scalar one_cache_scenario_3_links_network.node[6].content_store 	p_hit[6] 	0
scalar one_cache_scenario_3_links_network.node[6].content_store 	hits[6] 	0
scalar one_cache_scenario_3_links_network.node[6].content_store 	misses[6] 	19896842
scalar one_cache_scenario_3_links_network.node[6].content_store 	decision_yes[6] 	0
scalar one_cache_scenario_3_links_network.node[6].content_store 	decision_no[6] 	19896842
scalar one_cache_scenario_3_links_network.node[6].content_store 	decision_ratio[6] 	0
scalar one_cache_scenario_3_links_network.client[0] 	hdistance[0] 	1.3032344574228
scalar one_cache_scenario_3_links_network.client[0] 	downloads[0] 	180011861
scalar one_cache_scenario_3_links_network.client[0] 	avg_time[0] 	0
scalar one_cache_scenario_3_links_network.client[0] 	interests_sent[0] 	180011861
