version 2
run General-0-20140623-08:59:56-18735
attr D lce
attr F nrr
attr R lru
attr a 1
attr configname General
attr csize 1e7
attr ctlg 1e2
attr datetime 20140623-08:59:56
attr experiment General
attr inifile omnetpp.ini
attr iterationvars "$net=abilene_simpl, $rep=1, $priceratiovalue=10, $weights=0.333_0.333_0.334, $lambda=1, $a=1, $ctlg=1e2, $F=nrr, $ttl=1000, $D=lce, $xi=1, $R=lru, $csize=1e7, $pricebits=0, $mytime=1800"
attr iterationvars2 "$net=abilene_simpl, $rep=1, $priceratiovalue=10, $weights=0.333_0.333_0.334, $lambda=1, $a=1, $ctlg=1e2, $F=nrr, $ttl=1000, $D=lce, $xi=1, $R=lru, $csize=1e7, $pricebits=0, $mytime=1800, $repetition=0"
attr lambda 1
attr measurement "$net=abilene_simpl, $rep=1, $priceratiovalue=10, $weights=0.333_0.333_0.334, $lambda=1, $a=1, $ctlg=1e2, $F=nrr, $ttl=1000, $D=lce, $xi=1, $R=lru, $csize=1e7, $pricebits=0, $mytime=1800"
attr mytime 1800
attr net abilene_simpl
attr network networks.${net=abilene_simpl}_network
attr pricebits 0
attr priceratiovalue 10
attr processid 18735
attr rep 1
attr repetition 0
attr replication #0
attr resultdir results
attr runnumber 0
attr seedset 1
attr ttl 1000
attr weights 0.333_0.333_0.334
attr xi 1

scalar . 	a 	1
scalar . 	csize 	1e7
scalar . 	ctlg 	1e2
scalar . 	lambda 	1
scalar . 	mytime 	1800
scalar . 	pricebits 	0
scalar . 	priceratiovalue 	10
scalar . 	rep 	1
scalar . 	ttl 	1000
scalar . 	xi 	1
scalar abilene_simpl_network.content_distribution 	repo-0 	0
scalar abilene_simpl_network.content_distribution 	repo-1 	1
scalar abilene_simpl_network.content_distribution 	repo-2 	2
scalar abilene_simpl_network.content_distribution 	repo-3 	3
scalar abilene_simpl_network.content_distribution 	client-0 	0
scalar abilene_simpl_network.content_distribution 	client-1 	1
scalar abilene_simpl_network.content_distribution 	client-2 	2
scalar abilene_simpl_network.content_distribution 	client-3 	3
scalar abilene_simpl_network.content_distribution 	repo-0_card 	20
scalar abilene_simpl_network.content_distribution 	repo-1_card 	23
scalar abilene_simpl_network.content_distribution 	repo-2_card 	31
scalar abilene_simpl_network.content_distribution 	repo-3_card 	26
scalar abilene_simpl_network.statistics 	stabilization_time 	2487.5
scalar abilene_simpl_network.statistics 	p_hit 	1
scalar abilene_simpl_network.statistics 	interests 	1813
scalar abilene_simpl_network.statistics 	data 	0
scalar abilene_simpl_network.statistics 	hdistance 	0
scalar abilene_simpl_network.statistics 	avg_time 	0
scalar abilene_simpl_network.statistics 	downloads 	7252
scalar abilene_simpl_network.statistics 	total_cost 	0
scalar abilene_simpl_network.statistics 	total_replicas 	100
scalar abilene_simpl_network.statistics 	inner_hit 	1
scalar abilene_simpl_network.statistics 	interests_sent 	7252
scalar abilene_simpl_network.node[0].core_layer 	interests[0] 	1753
scalar abilene_simpl_network.node[0].core_layer 	data[0] 	0
scalar abilene_simpl_network.node[0].content_store 	p_hit[0] 	1
scalar abilene_simpl_network.node[0].content_store 	hits[0] 	1753
scalar abilene_simpl_network.node[0].content_store 	misses[0] 	0
scalar abilene_simpl_network.node[0].content_store 	decision_yes[0] 	0
scalar abilene_simpl_network.node[0].content_store 	decision_no[0] 	0
scalar abilene_simpl_network.node[0].content_store 	decision_ratio[0] 	0
scalar abilene_simpl_network.node[1].core_layer 	interests[1] 	1806
scalar abilene_simpl_network.node[1].core_layer 	data[1] 	0
scalar abilene_simpl_network.node[1].content_store 	p_hit[1] 	1
scalar abilene_simpl_network.node[1].content_store 	hits[1] 	1806
scalar abilene_simpl_network.node[1].content_store 	misses[1] 	0
scalar abilene_simpl_network.node[1].content_store 	decision_yes[1] 	0
scalar abilene_simpl_network.node[1].content_store 	decision_no[1] 	0
scalar abilene_simpl_network.node[1].content_store 	decision_ratio[1] 	0
scalar abilene_simpl_network.node[2].core_layer 	interests[2] 	1838
scalar abilene_simpl_network.node[2].core_layer 	data[2] 	0
scalar abilene_simpl_network.node[2].content_store 	p_hit[2] 	1
scalar abilene_simpl_network.node[2].content_store 	hits[2] 	1838
scalar abilene_simpl_network.node[2].content_store 	misses[2] 	0
scalar abilene_simpl_network.node[2].content_store 	decision_yes[2] 	0
scalar abilene_simpl_network.node[2].content_store 	decision_no[2] 	0
scalar abilene_simpl_network.node[2].content_store 	decision_ratio[2] 	0
scalar abilene_simpl_network.node[3].core_layer 	interests[3] 	1855
scalar abilene_simpl_network.node[3].core_layer 	data[3] 	0
scalar abilene_simpl_network.node[3].content_store 	p_hit[3] 	1
scalar abilene_simpl_network.node[3].content_store 	hits[3] 	1855
scalar abilene_simpl_network.node[3].content_store 	misses[3] 	0
scalar abilene_simpl_network.node[3].content_store 	decision_yes[3] 	0
scalar abilene_simpl_network.node[3].content_store 	decision_no[3] 	0
scalar abilene_simpl_network.node[3].content_store 	decision_ratio[3] 	0
scalar abilene_simpl_network.client[0] 	hdistance[0] 	0
scalar abilene_simpl_network.client[0] 	downloads[0] 	1753
scalar abilene_simpl_network.client[0] 	avg_time[0] 	0
scalar abilene_simpl_network.client[0] 	interests_sent[0] 	1753
scalar abilene_simpl_network.client[1] 	hdistance[1] 	0
scalar abilene_simpl_network.client[1] 	downloads[1] 	1806
scalar abilene_simpl_network.client[1] 	avg_time[1] 	0
scalar abilene_simpl_network.client[1] 	interests_sent[1] 	1806
scalar abilene_simpl_network.client[2] 	hdistance[2] 	0
scalar abilene_simpl_network.client[2] 	downloads[2] 	1838
scalar abilene_simpl_network.client[2] 	avg_time[2] 	0
scalar abilene_simpl_network.client[2] 	interests_sent[2] 	1838
scalar abilene_simpl_network.client[3] 	hdistance[3] 	0
scalar abilene_simpl_network.client[3] 	downloads[3] 	1855
scalar abilene_simpl_network.client[3] 	avg_time[3] 	0
scalar abilene_simpl_network.client[3] 	interests_sent[3] 	1855
