version 2
run General-863-20140502-02:42:04-9763
attr D fix0.005
attr F nrr
attr R lru
attr a 1.2
attr configname General
attr csize 1e3
attr ctlg 1e5
attr datetime 20140502-02:42:04
attr experiment General
attr inifile omnetpp.ini
attr iterationvars "$net=three_caches_scenario_3_links, $rep=2, $priceratiovalue=2, $weights=0_0.5_0.5, $a=1.2, $ctlg=1e5, $F=nrr, $ttl=1000, $D=fix0.005, $xi=1, $R=lru, $csize=1e3"
attr iterationvars2 "$net=three_caches_scenario_3_links, $rep=2, $priceratiovalue=2, $weights=0_0.5_0.5, $a=1.2, $ctlg=1e5, $F=nrr, $ttl=1000, $D=fix0.005, $xi=1, $R=lru, $csize=1e3, $repetition=0"
attr measurement "$net=three_caches_scenario_3_links, $rep=2, $priceratiovalue=2, $weights=0_0.5_0.5, $a=1.2, $ctlg=1e5, $F=nrr, $ttl=1000, $D=fix0.005, $xi=1, $R=lru, $csize=1e3"
attr net three_caches_scenario_3_links
attr network networks.${net=three_caches_scenario_3_links}_network
attr priceratiovalue 2
attr processid 9763
attr rep 2
attr repetition 0
attr replication #0
attr resultdir results
attr runnumber 863
attr seedset 2
attr ttl 1000
attr weights 0_0.5_0.5
attr xi 1

scalar . 	a 	1.2
scalar . 	csize 	1e3
scalar . 	ctlg 	1e5
scalar . 	priceratiovalue 	2
scalar . 	rep 	2
scalar . 	ttl 	1000
scalar . 	xi 	1
scalar three_caches_scenario_3_links_network.content_distribution 	repo-0 	4
scalar three_caches_scenario_3_links_network.content_distribution 	repo-1 	5
scalar three_caches_scenario_3_links_network.content_distribution 	repo-2 	6
scalar three_caches_scenario_3_links_network.content_distribution 	client-0 	0
scalar three_caches_scenario_3_links_network.content_distribution 	repo-0_card 	0
scalar three_caches_scenario_3_links_network.content_distribution 	repo-1_card 	50028
scalar three_caches_scenario_3_links_network.content_distribution 	repo-2_card 	49972
scalar three_caches_scenario_3_links_network.statistics 	p_hit 	0.56734027766933
scalar three_caches_scenario_3_links_network.statistics 	interests 	36590.285714286
scalar three_caches_scenario_3_links_network.statistics 	data 	10861.142857143
scalar three_caches_scenario_3_links_network.statistics 	hdistance 	0.61530004886066
scalar three_caches_scenario_3_links_network.statistics 	avg_time 	0
scalar three_caches_scenario_3_links_network.statistics 	downloads 	180104
scalar three_caches_scenario_3_links_network.statistics 	total_cost 	52236
scalar three_caches_scenario_3_links_network.statistics 	total_replicas 	100000
scalar three_caches_scenario_3_links_network.statistics 	interests_sent 	180104
scalar three_caches_scenario_3_links_network.node[0].core_layer 	interests[0] 	180104
scalar three_caches_scenario_3_links_network.node[0].core_layer 	data[0] 	41238
scalar three_caches_scenario_3_links_network.node[0].core_layer 	repo_int[0] 	34790
scalar three_caches_scenario_3_links_network.node[0].content_store 	p_hit[0] 	0.77103229245325
scalar three_caches_scenario_3_links_network.node[0].content_store 	hits[0] 	138866
scalar three_caches_scenario_3_links_network.node[0].content_store 	misses[0] 	41238
scalar three_caches_scenario_3_links_network.node[0].content_store 	decision_yes[0] 	221
scalar three_caches_scenario_3_links_network.node[0].content_store 	decision_no[0] 	41017
scalar three_caches_scenario_3_links_network.node[1].core_layer 	interests[1] 	0
scalar three_caches_scenario_3_links_network.node[1].core_layer 	data[1] 	0
scalar three_caches_scenario_3_links_network.node[1].content_store 	p_hit[1] 	-nan
scalar three_caches_scenario_3_links_network.node[1].content_store 	hits[1] 	0
scalar three_caches_scenario_3_links_network.node[1].content_store 	misses[1] 	0
scalar three_caches_scenario_3_links_network.node[1].content_store 	decision_yes[1] 	0
scalar three_caches_scenario_3_links_network.node[1].content_store 	decision_no[1] 	0
scalar three_caches_scenario_3_links_network.node[2].core_layer 	interests[2] 	20133
scalar three_caches_scenario_3_links_network.node[2].core_layer 	data[2] 	17344
scalar three_caches_scenario_3_links_network.node[2].content_store 	p_hit[2] 	0.13852878358913
scalar three_caches_scenario_3_links_network.node[2].content_store 	hits[2] 	2789
scalar three_caches_scenario_3_links_network.node[2].content_store 	misses[2] 	17344
scalar three_caches_scenario_3_links_network.node[2].content_store 	decision_yes[2] 	96
scalar three_caches_scenario_3_links_network.node[2].content_store 	decision_no[2] 	17248
scalar three_caches_scenario_3_links_network.node[3].core_layer 	interests[3] 	21105
scalar three_caches_scenario_3_links_network.node[3].core_layer 	data[3] 	17446
scalar three_caches_scenario_3_links_network.node[3].content_store 	p_hit[3] 	0.17337123904288
scalar three_caches_scenario_3_links_network.node[3].content_store 	hits[3] 	3659
scalar three_caches_scenario_3_links_network.node[3].content_store 	misses[3] 	17446
scalar three_caches_scenario_3_links_network.node[3].content_store 	decision_yes[3] 	86
scalar three_caches_scenario_3_links_network.node[3].content_store 	decision_no[3] 	17360
scalar three_caches_scenario_3_links_network.node[4].core_layer 	interests[4] 	0
scalar three_caches_scenario_3_links_network.node[4].core_layer 	data[4] 	0
scalar three_caches_scenario_3_links_network.node[4].content_store 	p_hit[4] 	-nan
scalar three_caches_scenario_3_links_network.node[4].content_store 	hits[4] 	0
scalar three_caches_scenario_3_links_network.node[4].content_store 	misses[4] 	0
scalar three_caches_scenario_3_links_network.node[4].content_store 	decision_yes[4] 	0
scalar three_caches_scenario_3_links_network.node[4].content_store 	decision_no[4] 	0
scalar three_caches_scenario_3_links_network.node[5].core_layer 	interests[5] 	17344
scalar three_caches_scenario_3_links_network.node[5].core_layer 	repo_load[5] 	17344
scalar three_caches_scenario_3_links_network.node[5].core_layer 	data[5] 	0
scalar three_caches_scenario_3_links_network.node[5].content_store 	p_hit[5] 	0
scalar three_caches_scenario_3_links_network.node[5].content_store 	hits[5] 	0
scalar three_caches_scenario_3_links_network.node[5].content_store 	misses[5] 	17344
scalar three_caches_scenario_3_links_network.node[5].content_store 	decision_yes[5] 	0
scalar three_caches_scenario_3_links_network.node[5].content_store 	decision_no[5] 	17344
scalar three_caches_scenario_3_links_network.node[6].core_layer 	interests[6] 	17446
scalar three_caches_scenario_3_links_network.node[6].core_layer 	repo_load[6] 	17446
scalar three_caches_scenario_3_links_network.node[6].core_layer 	data[6] 	0
scalar three_caches_scenario_3_links_network.node[6].content_store 	p_hit[6] 	0
scalar three_caches_scenario_3_links_network.node[6].content_store 	hits[6] 	0
scalar three_caches_scenario_3_links_network.node[6].content_store 	misses[6] 	17446
scalar three_caches_scenario_3_links_network.node[6].content_store 	decision_yes[6] 	0
scalar three_caches_scenario_3_links_network.node[6].content_store 	decision_no[6] 	17446
scalar three_caches_scenario_3_links_network.client[0] 	hdistance[0] 	0.61530004886066
scalar three_caches_scenario_3_links_network.client[0] 	downloads[0] 	180104
scalar three_caches_scenario_3_links_network.client[0] 	avg_time[0] 	0
scalar three_caches_scenario_3_links_network.client[0] 	interests_sent[0] 	180104
