version 2
run General-19-20140426-14:37:50-26071
attr D fix0.01
attr F nrr
attr R lru
attr a 0
attr configname General
attr csize 1000
attr ctlg 10^5
attr datetime 20140426-14:37:50
attr experiment General
attr inifile omnetpp.ini
attr iterationvars "$net=one_cache_scenario, $rep=7, $priceratiovalue=10, $a=0, $ctlg=10^5, $F=nrr, $ttl=1000, $D=fix0.01, $R=lru, $csize=1000"
attr iterationvars2 "$net=one_cache_scenario, $rep=7, $priceratiovalue=10, $a=0, $ctlg=10^5, $F=nrr, $ttl=1000, $D=fix0.01, $R=lru, $csize=1000, $repetition=0"
attr measurement "$net=one_cache_scenario, $rep=7, $priceratiovalue=10, $a=0, $ctlg=10^5, $F=nrr, $ttl=1000, $D=fix0.01, $R=lru, $csize=1000"
attr net one_cache_scenario
attr network networks.${net=one_cache_scenario}_network
attr priceratiovalue 10
attr processid 26071
attr rep 7
attr repetition 0
attr replication #0
attr resultdir results
attr runnumber 19
attr seedset 7
attr ttl 1000

scalar . 	a 	0
scalar . 	csize 	1000
scalar . 	priceratiovalue 	10
scalar . 	rep 	7
scalar . 	ttl 	1000
scalar one_cache_scenario_network.content_distribution 	repo-0 	3
scalar one_cache_scenario_network.content_distribution 	repo-1 	4
scalar one_cache_scenario_network.content_distribution 	client-0 	0
scalar one_cache_scenario_network.content_distribution 	repo-0_card 	49812
scalar one_cache_scenario_network.content_distribution 	repo-1_card 	50188
scalar one_cache_scenario_network.statistics 	p_hit 	0.0032425047325306
scalar one_cache_scenario_network.statistics 	interests 	107447.8
scalar one_cache_scenario_network.statistics 	data 	71399.6
scalar one_cache_scenario_network.statistics 	hdistance 	1.9806703247319
scalar one_cache_scenario_network.statistics 	avg_time 	0
scalar one_cache_scenario_network.statistics 	downloads 	180241
scalar one_cache_scenario_network.statistics 	total_cost 	89461
scalar one_cache_scenario_network.statistics 	interests_sent 	180241
scalar one_cache_scenario_network.node[0].core_layer 	interests[0] 	180241
scalar one_cache_scenario_network.node[0].core_layer 	data[0] 	178499
scalar one_cache_scenario_network.node[0].core_layer 	repo_int[0] 	178499
scalar one_cache_scenario_network.node[0].content_store 	p_hit[0] 	0.0096648376340566
scalar one_cache_scenario_network.node[0].content_store 	hits[0] 	1742
scalar one_cache_scenario_network.node[0].content_store 	misses[0] 	178499
scalar one_cache_scenario_network.node[0].content_store 	decision_yes[0] 	1785
scalar one_cache_scenario_network.node[0].content_store 	decision_no[0] 	176714
scalar one_cache_scenario_network.node[1].core_layer 	interests[1] 	88989
scalar one_cache_scenario_network.node[1].core_layer 	data[1] 	88989
scalar one_cache_scenario_network.node[1].content_store 	p_hit[1] 	0
scalar one_cache_scenario_network.node[1].content_store 	hits[1] 	0
scalar one_cache_scenario_network.node[1].content_store 	misses[1] 	88989
scalar one_cache_scenario_network.node[1].content_store 	decision_yes[1] 	0
scalar one_cache_scenario_network.node[1].content_store 	decision_no[1] 	88989
scalar one_cache_scenario_network.node[2].core_layer 	interests[2] 	89510
scalar one_cache_scenario_network.node[2].core_layer 	data[2] 	89510
scalar one_cache_scenario_network.node[2].content_store 	p_hit[2] 	0
scalar one_cache_scenario_network.node[2].content_store 	hits[2] 	0
scalar one_cache_scenario_network.node[2].content_store 	misses[2] 	89510
scalar one_cache_scenario_network.node[2].content_store 	decision_yes[2] 	0
scalar one_cache_scenario_network.node[2].content_store 	decision_no[2] 	89510
scalar one_cache_scenario_network.node[3].core_layer 	interests[3] 	88989
scalar one_cache_scenario_network.node[3].core_layer 	repo_load[3] 	88989
scalar one_cache_scenario_network.node[3].core_layer 	data[3] 	0
scalar one_cache_scenario_network.node[3].content_store 	p_hit[3] 	0
scalar one_cache_scenario_network.node[3].content_store 	hits[3] 	0
scalar one_cache_scenario_network.node[3].content_store 	misses[3] 	88989
scalar one_cache_scenario_network.node[3].content_store 	decision_yes[3] 	0
scalar one_cache_scenario_network.node[3].content_store 	decision_no[3] 	88989
scalar one_cache_scenario_network.node[4].core_layer 	interests[4] 	89510
scalar one_cache_scenario_network.node[4].core_layer 	repo_load[4] 	89510
scalar one_cache_scenario_network.node[4].core_layer 	data[4] 	0
scalar one_cache_scenario_network.node[4].content_store 	p_hit[4] 	0
scalar one_cache_scenario_network.node[4].content_store 	hits[4] 	0
scalar one_cache_scenario_network.node[4].content_store 	misses[4] 	89510
scalar one_cache_scenario_network.node[4].content_store 	decision_yes[4] 	0
scalar one_cache_scenario_network.node[4].content_store 	decision_no[4] 	89510
scalar one_cache_scenario_network.client[0] 	hdistance[0] 	1.9806703247319
scalar one_cache_scenario_network.client[0] 	downloads[0] 	180241
scalar one_cache_scenario_network.client[0] 	avg_time[0] 	0
scalar one_cache_scenario_network.client[0] 	interests_sent[0] 	180241
