version 2
run General-7-20140626-16:43:09-10660
attr D costprobprodcorr0.01
attr F spr
attr R lru
attr a 1
attr configname General
attr csize 1e3
attr ctlg 1e5
attr datetime 20140626-16:43:09
attr experiment General
attr inifile omnetpp.ini
attr iterationvars "$net=geant_cost, $rep=4, $priceratiovalue=10, $weights=0.333_0.333_0.334, $lambda=100, $a=1, $ctlg=1e5, $F=spr, $ttl=1000, $D=costprobprodcorr0.01, $xi=1, $R=lru, $csize=1e3, $pricebits=0, $mytime=1800"
attr iterationvars2 "$net=geant_cost, $rep=4, $priceratiovalue=10, $weights=0.333_0.333_0.334, $lambda=100, $a=1, $ctlg=1e5, $F=spr, $ttl=1000, $D=costprobprodcorr0.01, $xi=1, $R=lru, $csize=1e3, $pricebits=0, $mytime=1800, $repetition=0"
attr lambda 100
attr measurement "$net=geant_cost, $rep=4, $priceratiovalue=10, $weights=0.333_0.333_0.334, $lambda=100, $a=1, $ctlg=1e5, $F=spr, $ttl=1000, $D=costprobprodcorr0.01, $xi=1, $R=lru, $csize=1e3, $pricebits=0, $mytime=1800"
attr mytime 1800
attr net geant_cost
attr network "networks.${net=geant_cost, abilene_cost}_network"
attr pricebits 0
attr priceratiovalue 10
attr processid 10660
attr rep 4
attr repetition 0
attr replication #0
attr resultdir results
attr runnumber 7
attr seedset 4
attr ttl 1000
attr weights 0.333_0.333_0.334
attr xi 1

scalar . 	a 	1
scalar . 	csize 	1e3
scalar . 	ctlg 	1e5
scalar . 	lambda 	100
scalar . 	mytime 	1800
scalar . 	pricebits 	0
scalar . 	priceratiovalue 	10
scalar . 	rep 	4
scalar . 	ttl 	1000
scalar . 	xi 	1
scalar geant_cost_network.content_distribution 	repo-0 	22
scalar geant_cost_network.content_distribution 	repo-1 	23
scalar geant_cost_network.content_distribution 	repo-2 	24
scalar geant_cost_network.content_distribution 	client-0 	20
scalar geant_cost_network.content_distribution 	client-1 	10
scalar geant_cost_network.content_distribution 	client-2 	12
scalar geant_cost_network.content_distribution 	client-3 	9
scalar geant_cost_network.content_distribution 	client-4 	5
scalar geant_cost_network.content_distribution 	repo-0_card 	33272
scalar geant_cost_network.content_distribution 	repo-1_card 	33152
scalar geant_cost_network.content_distribution 	repo-2_card 	33576
scalar geant_cost_network.statistics 	repo_popularity[0] 	0.28234107170654
scalar geant_cost_network.statistics 	repo_popularity[1] 	0.30413978820018
scalar geant_cost_network.statistics 	repo_popularity[2] 	0.41351914009327
scalar geant_cost_network.statistics 	stabilization_time 	36060
scalar geant_cost_network.node[7].face$o[4].channel 	price[7] 	0
scalar geant_cost_network.node[7].face$o[4].channel 	represented_price[7] 	0
scalar geant_cost_network.node[8].face$o[3].channel 	price[8] 	0
scalar geant_cost_network.node[8].face$o[3].channel 	represented_price[8] 	0
scalar geant_cost_network.node[21].face$o[5].channel 	price[21] 	0
scalar geant_cost_network.node[21].face$o[5].channel 	represented_price[21] 	0
scalar geant_cost_network.node[22].face$o[1].channel 	price[22] 	0
scalar geant_cost_network.node[22].face$o[1].channel 	represented_price[22] 	0
scalar geant_cost_network.node[23].face$o[1].channel 	price[23] 	1
scalar geant_cost_network.node[23].face$o[1].channel 	represented_price[23] 	1
scalar geant_cost_network.node[24].face$o[1].channel 	price[24] 	10
scalar geant_cost_network.node[24].face$o[1].channel 	represented_price[24] 	10
scalar geant_cost_network.statistics 	p_hit 	0.092138482227075
scalar geant_cost_network.statistics 	interests 	142657.44
scalar geant_cost_network.statistics 	data 	106673.48
scalar geant_cost_network.statistics 	hdistance 	3.631385628375
scalar geant_cost_network.statistics 	avg_time 	0.006009867851
scalar geant_cost_network.statistics 	downloads 	893228
scalar geant_cost_network.statistics 	total_cost 	1709691
scalar geant_cost_network.statistics 	total_replicas 	100000
scalar geant_cost_network.statistics 	inner_hit 	0.37401312990636
scalar geant_cost_network.statistics 	interests_sent 	899598
scalar geant_cost_network.node[0].core_layer 	interests[0] 	0
scalar geant_cost_network.node[0].core_layer 	data[0] 	0
scalar geant_cost_network.node[0].core_layer 	repo_int[0] 	559149
scalar geant_cost_network.node[0].content_store 	p_hit[0] 	-nan
scalar geant_cost_network.node[0].content_store 	hits[0] 	0
scalar geant_cost_network.node[0].content_store 	misses[0] 	0
scalar geant_cost_network.node[0].content_store 	decision_yes[0] 	0
scalar geant_cost_network.node[0].content_store 	decision_no[0] 	0
scalar geant_cost_network.node[0].content_store 	decision_ratio[0] 	0
scalar geant_cost_network.node[0].content_store 	correction_factor[0] 	0.0027225701061802
scalar geant_cost_network.node[0].content_store 	xi[0] 	1
scalar geant_cost_network.node[1].core_layer 	interests[1] 	0
scalar geant_cost_network.node[1].core_layer 	data[1] 	0
scalar geant_cost_network.node[1].content_store 	p_hit[1] 	-nan
scalar geant_cost_network.node[1].content_store 	hits[1] 	0
scalar geant_cost_network.node[1].content_store 	misses[1] 	0
scalar geant_cost_network.node[1].content_store 	decision_yes[1] 	0
scalar geant_cost_network.node[1].content_store 	decision_no[1] 	0
scalar geant_cost_network.node[1].content_store 	decision_ratio[1] 	0
scalar geant_cost_network.node[1].content_store 	correction_factor[1] 	0.0027225701061802
scalar geant_cost_network.node[1].content_store 	xi[1] 	1
scalar geant_cost_network.node[2].core_layer 	interests[2] 	0
scalar geant_cost_network.node[2].core_layer 	data[2] 	0
scalar geant_cost_network.node[2].content_store 	p_hit[2] 	-nan
scalar geant_cost_network.node[2].content_store 	hits[2] 	0
scalar geant_cost_network.node[2].content_store 	misses[2] 	0
scalar geant_cost_network.node[2].content_store 	decision_yes[2] 	0
scalar geant_cost_network.node[2].content_store 	decision_no[2] 	0
scalar geant_cost_network.node[2].content_store 	decision_ratio[2] 	0
scalar geant_cost_network.node[2].content_store 	correction_factor[2] 	0.0027225701061802
scalar geant_cost_network.node[2].content_store 	xi[2] 	1
scalar geant_cost_network.node[3].core_layer 	interests[3] 	226511
scalar geant_cost_network.node[3].core_layer 	data[3] 	198970
scalar geant_cost_network.node[3].content_store 	p_hit[3] 	0.12158349925611
scalar geant_cost_network.node[3].content_store 	hits[3] 	27540
scalar geant_cost_network.node[3].content_store 	misses[3] 	198971
scalar geant_cost_network.node[3].content_store 	decision_yes[3] 	2499
scalar geant_cost_network.node[3].content_store 	decision_no[3] 	196471
scalar geant_cost_network.node[3].content_store 	decision_ratio[3] 	0.012559682364176
scalar geant_cost_network.node[3].content_store 	correction_factor[3] 	0.0027225701061802
scalar geant_cost_network.node[3].content_store 	xi[3] 	1
scalar geant_cost_network.node[4].core_layer 	interests[4] 	299108
scalar geant_cost_network.node[4].core_layer 	data[4] 	289922
scalar geant_cost_network.node[4].content_store 	p_hit[4] 	0.030517405084451
scalar geant_cost_network.node[4].content_store 	hits[4] 	9128
scalar geant_cost_network.node[4].content_store 	misses[4] 	289980
scalar geant_cost_network.node[4].content_store 	decision_yes[4] 	2551
scalar geant_cost_network.node[4].content_store 	decision_no[4] 	287371
scalar geant_cost_network.node[4].content_store 	decision_ratio[4] 	0.0087989183297577
scalar geant_cost_network.node[4].content_store 	correction_factor[4] 	0.0027225701061802
scalar geant_cost_network.node[4].content_store 	xi[4] 	1
scalar geant_cost_network.node[5].core_layer 	interests[5] 	180216
scalar geant_cost_network.node[5].core_layer 	data[5] 	170583
scalar geant_cost_network.node[5].content_store 	p_hit[5] 	0.042088382829493
scalar geant_cost_network.node[5].content_store 	hits[5] 	7585
scalar geant_cost_network.node[5].content_store 	misses[5] 	172631
scalar geant_cost_network.node[5].content_store 	decision_yes[5] 	957
scalar geant_cost_network.node[5].content_store 	decision_no[5] 	169626
scalar geant_cost_network.node[5].content_store 	decision_ratio[5] 	0.0056101721742495
scalar geant_cost_network.node[5].content_store 	correction_factor[5] 	0.0027225701061802
scalar geant_cost_network.node[5].content_store 	xi[5] 	1
scalar geant_cost_network.node[6].core_layer 	interests[6] 	104026
scalar geant_cost_network.node[6].core_layer 	data[6] 	98589
scalar geant_cost_network.node[6].content_store 	p_hit[6] 	0.052265779708919
scalar geant_cost_network.node[6].content_store 	hits[6] 	5437
scalar geant_cost_network.node[6].content_store 	misses[6] 	98589
scalar geant_cost_network.node[6].content_store 	decision_yes[6] 	81
scalar geant_cost_network.node[6].content_store 	decision_no[6] 	98508
scalar geant_cost_network.node[6].content_store 	decision_ratio[6] 	0.00082159267261053
scalar geant_cost_network.node[6].content_store 	correction_factor[6] 	0.0027225701061802
scalar geant_cost_network.node[6].content_store 	xi[6] 	1
scalar geant_cost_network.node[7].core_layer 	interests[7] 	350570
scalar geant_cost_network.node[7].core_layer 	data[7] 	339234
scalar geant_cost_network.node[7].content_store 	p_hit[7] 	0.032002167897995
scalar geant_cost_network.node[7].content_store 	hits[7] 	11219
scalar geant_cost_network.node[7].content_store 	misses[7] 	339351
scalar geant_cost_network.node[7].content_store 	decision_yes[7] 	167
scalar geant_cost_network.node[7].content_store 	decision_no[7] 	339067
scalar geant_cost_network.node[7].content_store 	decision_ratio[7] 	0.00049228556099919
scalar geant_cost_network.node[7].content_store 	correction_factor[7] 	0.0027225701061802
scalar geant_cost_network.node[7].content_store 	xi[7] 	1
scalar geant_cost_network.node[8].core_layer 	interests[8] 	336497
scalar geant_cost_network.node[8].core_layer 	data[8] 	250680
scalar geant_cost_network.node[8].content_store 	p_hit[8] 	0.25502753367786
scalar geant_cost_network.node[8].content_store 	hits[8] 	85816
scalar geant_cost_network.node[8].content_store 	misses[8] 	250681
scalar geant_cost_network.node[8].content_store 	decision_yes[8] 	410
scalar geant_cost_network.node[8].content_store 	decision_no[8] 	250270
scalar geant_cost_network.node[8].content_store 	decision_ratio[8] 	0.0016355513004627
scalar geant_cost_network.node[8].content_store 	correction_factor[8] 	0.0027225701061802
scalar geant_cost_network.node[8].content_store 	xi[8] 	1
scalar geant_cost_network.node[9].core_layer 	interests[9] 	409992
scalar geant_cost_network.node[9].core_layer 	data[9] 	386122
scalar geant_cost_network.node[9].content_store 	p_hit[9] 	0.049981463052938
scalar geant_cost_network.node[9].content_store 	hits[9] 	20492
scalar geant_cost_network.node[9].content_store 	misses[9] 	389500
scalar geant_cost_network.node[9].content_store 	decision_yes[9] 	1925
scalar geant_cost_network.node[9].content_store 	decision_no[9] 	384197
scalar geant_cost_network.node[9].content_store 	decision_ratio[9] 	0.0049854709133383
scalar geant_cost_network.node[9].content_store 	correction_factor[9] 	0.0027225701061802
scalar geant_cost_network.node[9].content_store 	xi[9] 	1
scalar geant_cost_network.node[10].core_layer 	interests[10] 	179602
scalar geant_cost_network.node[10].core_layer 	data[10] 	175381
scalar geant_cost_network.node[10].content_store 	p_hit[10] 	0.015233683366555
scalar geant_cost_network.node[10].content_store 	hits[10] 	2736
scalar geant_cost_network.node[10].content_store 	misses[10] 	176866
scalar geant_cost_network.node[10].content_store 	decision_yes[10] 	916
scalar geant_cost_network.node[10].content_store 	decision_no[10] 	174465
scalar geant_cost_network.node[10].content_store 	decision_ratio[10] 	0.0052229146828904
scalar geant_cost_network.node[10].content_store 	correction_factor[10] 	0.0027225701061802
scalar geant_cost_network.node[10].content_store 	xi[10] 	1
scalar geant_cost_network.node[11].core_layer 	interests[11] 	0
scalar geant_cost_network.node[11].core_layer 	data[11] 	0
scalar geant_cost_network.node[11].content_store 	p_hit[11] 	-nan
scalar geant_cost_network.node[11].content_store 	hits[11] 	0
scalar geant_cost_network.node[11].content_store 	misses[11] 	0
scalar geant_cost_network.node[11].content_store 	decision_yes[11] 	0
scalar geant_cost_network.node[11].content_store 	decision_no[11] 	0
scalar geant_cost_network.node[11].content_store 	decision_ratio[11] 	0
scalar geant_cost_network.node[11].content_store 	correction_factor[11] 	0.0027225701061802
scalar geant_cost_network.node[11].content_store 	xi[11] 	1
scalar geant_cost_network.node[12].core_layer 	interests[12] 	315654
scalar geant_cost_network.node[12].core_layer 	data[12] 	281128
scalar geant_cost_network.node[12].content_store 	p_hit[12] 	0.096475888156019
scalar geant_cost_network.node[12].content_store 	hits[12] 	30453
scalar geant_cost_network.node[12].content_store 	misses[12] 	285201
scalar geant_cost_network.node[12].content_store 	decision_yes[12] 	2476
scalar geant_cost_network.node[12].content_store 	decision_no[12] 	278652
scalar geant_cost_network.node[12].content_store 	decision_ratio[12] 	0.0088073759995447
scalar geant_cost_network.node[12].content_store 	correction_factor[12] 	0.0027225701061802
scalar geant_cost_network.node[12].content_store 	xi[12] 	1
scalar geant_cost_network.node[13].core_layer 	interests[13] 	0
scalar geant_cost_network.node[13].core_layer 	data[13] 	0
scalar geant_cost_network.node[13].content_store 	p_hit[13] 	-nan
scalar geant_cost_network.node[13].content_store 	hits[13] 	0
scalar geant_cost_network.node[13].content_store 	misses[13] 	0
scalar geant_cost_network.node[13].content_store 	decision_yes[13] 	0
scalar geant_cost_network.node[13].content_store 	decision_no[13] 	0
scalar geant_cost_network.node[13].content_store 	decision_ratio[13] 	0
scalar geant_cost_network.node[13].content_store 	correction_factor[13] 	0.0027225701061802
scalar geant_cost_network.node[13].content_store 	xi[13] 	1
scalar geant_cost_network.node[14].core_layer 	interests[14] 	66557
scalar geant_cost_network.node[14].core_layer 	data[14] 	52329
scalar geant_cost_network.node[14].content_store 	p_hit[14] 	0.21377165437144
scalar geant_cost_network.node[14].content_store 	hits[14] 	14228
scalar geant_cost_network.node[14].content_store 	misses[14] 	52329
scalar geant_cost_network.node[14].content_store 	decision_yes[14] 	893
scalar geant_cost_network.node[14].content_store 	decision_no[14] 	51436
scalar geant_cost_network.node[14].content_store 	decision_ratio[14] 	0.017065107301879
scalar geant_cost_network.node[14].content_store 	correction_factor[14] 	0.0027225701061802
scalar geant_cost_network.node[14].content_store 	xi[14] 	1
scalar geant_cost_network.node[15].core_layer 	interests[15] 	0
scalar geant_cost_network.node[15].core_layer 	data[15] 	0
scalar geant_cost_network.node[15].content_store 	p_hit[15] 	-nan
scalar geant_cost_network.node[15].content_store 	hits[15] 	0
scalar geant_cost_network.node[15].content_store 	misses[15] 	0
scalar geant_cost_network.node[15].content_store 	decision_yes[15] 	0
scalar geant_cost_network.node[15].content_store 	decision_no[15] 	0
scalar geant_cost_network.node[15].content_store 	decision_ratio[15] 	0
scalar geant_cost_network.node[15].content_store 	correction_factor[15] 	0.0027225701061802
scalar geant_cost_network.node[15].content_store 	xi[15] 	1
scalar geant_cost_network.node[16].core_layer 	interests[16] 	0
scalar geant_cost_network.node[16].core_layer 	data[16] 	0
scalar geant_cost_network.node[16].content_store 	p_hit[16] 	-nan
scalar geant_cost_network.node[16].content_store 	hits[16] 	0
scalar geant_cost_network.node[16].content_store 	misses[16] 	0
scalar geant_cost_network.node[16].content_store 	decision_yes[16] 	0
scalar geant_cost_network.node[16].content_store 	decision_no[16] 	0
scalar geant_cost_network.node[16].content_store 	decision_ratio[16] 	0
scalar geant_cost_network.node[16].content_store 	correction_factor[16] 	0.0027225701061802
scalar geant_cost_network.node[16].content_store 	xi[16] 	1
scalar geant_cost_network.node[17].core_layer 	interests[17] 	0
scalar geant_cost_network.node[17].core_layer 	data[17] 	0
scalar geant_cost_network.node[17].content_store 	p_hit[17] 	-nan
scalar geant_cost_network.node[17].content_store 	hits[17] 	0
scalar geant_cost_network.node[17].content_store 	misses[17] 	0
scalar geant_cost_network.node[17].content_store 	decision_yes[17] 	0
scalar geant_cost_network.node[17].content_store 	decision_no[17] 	0
scalar geant_cost_network.node[17].content_store 	decision_ratio[17] 	0
scalar geant_cost_network.node[17].content_store 	correction_factor[17] 	0.0027225701061802
scalar geant_cost_network.node[17].content_store 	xi[17] 	1
scalar geant_cost_network.node[18].core_layer 	interests[18] 	105099
scalar geant_cost_network.node[18].core_layer 	data[18] 	100139
scalar geant_cost_network.node[18].content_store 	p_hit[18] 	0.047212628093512
scalar geant_cost_network.node[18].content_store 	hits[18] 	4962
scalar geant_cost_network.node[18].content_store 	misses[18] 	100137
scalar geant_cost_network.node[18].content_store 	decision_yes[18] 	80
scalar geant_cost_network.node[18].content_store 	decision_no[18] 	100059
scalar geant_cost_network.node[18].content_store 	decision_ratio[18] 	0.00079888954353449
scalar geant_cost_network.node[18].content_store 	correction_factor[18] 	0.0027225701061802
scalar geant_cost_network.node[18].content_store 	xi[18] 	1
scalar geant_cost_network.node[19].core_layer 	interests[19] 	0
scalar geant_cost_network.node[19].core_layer 	data[19] 	0
scalar geant_cost_network.node[19].content_store 	p_hit[19] 	-nan
scalar geant_cost_network.node[19].content_store 	hits[19] 	0
scalar geant_cost_network.node[19].content_store 	misses[19] 	0
scalar geant_cost_network.node[19].content_store 	decision_yes[19] 	0
scalar geant_cost_network.node[19].content_store 	decision_no[19] 	0
scalar geant_cost_network.node[19].content_store 	decision_ratio[19] 	0
scalar geant_cost_network.node[19].content_store 	correction_factor[19] 	0.0027225701061802
scalar geant_cost_network.node[19].content_store 	xi[19] 	1
scalar geant_cost_network.node[20].core_layer 	interests[20] 	179609
scalar geant_cost_network.node[20].core_layer 	data[20] 	167768
scalar geant_cost_network.node[20].content_store 	p_hit[20] 	0.062112700365795
scalar geant_cost_network.node[20].content_store 	hits[20] 	11156
scalar geant_cost_network.node[20].content_store 	misses[20] 	168453
scalar geant_cost_network.node[20].content_store 	decision_yes[20] 	957
scalar geant_cost_network.node[20].content_store 	decision_no[20] 	166811
scalar geant_cost_network.node[20].content_store 	decision_ratio[20] 	0.0057043059463068
scalar geant_cost_network.node[20].content_store 	correction_factor[20] 	0.0027225701061802
scalar geant_cost_network.node[20].content_store 	xi[20] 	1
scalar geant_cost_network.node[21].core_layer 	interests[21] 	253846
scalar geant_cost_network.node[21].core_layer 	data[21] 	155992
scalar geant_cost_network.node[21].content_store 	p_hit[21] 	0.38548568817314
scalar geant_cost_network.node[21].content_store 	hits[21] 	97854
scalar geant_cost_network.node[21].content_store 	misses[21] 	155992
scalar geant_cost_network.node[21].content_store 	decision_yes[21] 	4337
scalar geant_cost_network.node[21].content_store 	decision_no[21] 	151655
scalar geant_cost_network.node[21].content_store 	decision_ratio[21] 	0.027802707831171
scalar geant_cost_network.node[21].content_store 	correction_factor[21] 	0.0027225701061802
scalar geant_cost_network.node[21].content_store 	xi[21] 	1
scalar geant_cost_network.node[22].core_layer 	interests[22] 	253386
scalar geant_cost_network.node[22].core_layer 	repo_load[22] 	253386
scalar geant_cost_network.node[22].core_layer 	data[22] 	0
scalar geant_cost_network.node[22].content_store 	p_hit[22] 	0
scalar geant_cost_network.node[22].content_store 	hits[22] 	0
scalar geant_cost_network.node[22].content_store 	misses[22] 	253386
scalar geant_cost_network.node[22].content_store 	decision_yes[22] 	0
scalar geant_cost_network.node[22].content_store 	decision_no[22] 	253386
scalar geant_cost_network.node[22].content_store 	decision_ratio[22] 	0
scalar geant_cost_network.node[23].core_layer 	interests[23] 	149771
scalar geant_cost_network.node[23].core_layer 	repo_load[23] 	149771
scalar geant_cost_network.node[23].core_layer 	data[23] 	0
scalar geant_cost_network.node[23].content_store 	p_hit[23] 	0
scalar geant_cost_network.node[23].content_store 	hits[23] 	0
scalar geant_cost_network.node[23].content_store 	misses[23] 	149771
scalar geant_cost_network.node[23].content_store 	decision_yes[23] 	0
scalar geant_cost_network.node[23].content_store 	decision_no[23] 	149771
scalar geant_cost_network.node[23].content_store 	decision_ratio[23] 	0
scalar geant_cost_network.node[24].core_layer 	interests[24] 	155992
scalar geant_cost_network.node[24].core_layer 	repo_load[24] 	155992
scalar geant_cost_network.node[24].core_layer 	data[24] 	0
scalar geant_cost_network.node[24].content_store 	p_hit[24] 	0
scalar geant_cost_network.node[24].content_store 	hits[24] 	0
scalar geant_cost_network.node[24].content_store 	misses[24] 	155992
scalar geant_cost_network.node[24].content_store 	decision_yes[24] 	0
scalar geant_cost_network.node[24].content_store 	decision_no[24] 	155992
scalar geant_cost_network.node[24].content_store 	decision_ratio[24] 	0
scalar geant_cost_network.client[5] 	hdistance[5] 	3.2898612545463
scalar geant_cost_network.client[5] 	downloads[5] 	178168
scalar geant_cost_network.client[5] 	avg_time[5] 	0.009755369327
scalar geant_cost_network.client[5] 	interests_sent[5] 	180216
scalar geant_cost_network.client[9] 	hdistance[9] 	3.3698790196341
scalar geant_cost_network.client[9] 	downloads[9] 	178872
scalar geant_cost_network.client[9] 	avg_time[9] 	0.003831936433
scalar geant_cost_network.client[9] 	interests_sent[9] 	179992
scalar geant_cost_network.client[10] 	hdistance[10] 	4.3114806559733
scalar geant_cost_network.client[10] 	downloads[10] 	178117
scalar geant_cost_network.client[10] 	avg_time[10] 	0.005715053206
scalar geant_cost_network.client[10] 	interests_sent[10] 	179602
scalar geant_cost_network.client[12] 	hdistance[12] 	3.630147309193
scalar geant_cost_network.client[12] 	downloads[12] 	179147
scalar geant_cost_network.client[12] 	avg_time[12] 	0.004514085791
scalar geant_cost_network.client[12] 	interests_sent[12] 	180179
scalar geant_cost_network.client[20] 	hdistance[20] 	3.5555599025285
scalar geant_cost_network.client[20] 	downloads[20] 	178924
scalar geant_cost_network.client[20] 	avg_time[20] 	0.0062328945
scalar geant_cost_network.client[20] 	interests_sent[20] 	179609
