version 2
run General-6889-20140423-21:26:04-1988
attr D lce
attr F nrr
attr R lru
attr a 0.8
attr configname General
attr csize 2
attr ctlg 10^3
attr datetime 20140423-21:26:04
attr experiment General
attr inifile omnetpp.ini
attr iterationvars "$net=simple_scenario, $rep=20, $priceratiovalue=2, $a=0.8, $ctlg=10^3, $F=nrr, $ttl=1000, $D=lce, $R=lru, $csize=2"
attr iterationvars2 "$net=simple_scenario, $rep=20, $priceratiovalue=2, $a=0.8, $ctlg=10^3, $F=nrr, $ttl=1000, $D=lce, $R=lru, $csize=2, $repetition=0"
attr measurement "$net=simple_scenario, $rep=20, $priceratiovalue=2, $a=0.8, $ctlg=10^3, $F=nrr, $ttl=1000, $D=lce, $R=lru, $csize=2"
attr net simple_scenario
attr network networks.${net=simple_scenario}_network
attr priceratiovalue 2
attr processid 1988
attr rep 20
attr repetition 0
attr replication #0
attr resultdir results
attr runnumber 6889
attr seedset 20
attr ttl 1000

scalar . 	a 	0.8
scalar . 	csize 	2
scalar . 	priceratiovalue 	2
scalar . 	rep 	20
scalar . 	ttl 	1000
scalar simple_scenario_network.content_distribution 	repo-0 	3
scalar simple_scenario_network.content_distribution 	repo-1 	4
scalar simple_scenario_network.content_distribution 	client-0 	0
scalar simple_scenario_network.content_distribution 	repo-0_card 	484
scalar simple_scenario_network.content_distribution 	repo-1_card 	516
scalar simple_scenario_network.statistics 	p_hit 	0.011989828641279
scalar simple_scenario_network.statistics 	interests 	106023.2
scalar simple_scenario_network.statistics 	data 	70037.2
scalar simple_scenario_network.statistics 	hdistance 	2.9109097982549
scalar simple_scenario_network.statistics 	avg_time 	0.001997997064
scalar simple_scenario_network.statistics 	downloads 	179930
scalar simple_scenario_network.statistics 	total_cost 	87380
scalar simple_scenario_network.node[0].core_layer 	interests[0] 	179930
scalar simple_scenario_network.node[0].core_layer 	data[0] 	176612
scalar simple_scenario_network.node[0].core_layer 	repo_int[0] 	173574
scalar simple_scenario_network.node[0].content_store 	p_hit[0] 	0.018440504640694
scalar simple_scenario_network.node[0].content_store 	hits[0] 	3318
scalar simple_scenario_network.node[0].content_store 	misses[0] 	176612
scalar simple_scenario_network.node[1].core_layer 	interests[1] 	86134
scalar simple_scenario_network.node[1].core_layer 	data[1] 	85006
scalar simple_scenario_network.node[1].content_store 	p_hit[1] 	0.013095873870945
scalar simple_scenario_network.node[1].content_store 	hits[1] 	1128
scalar simple_scenario_network.node[1].content_store 	misses[1] 	85006
scalar simple_scenario_network.node[2].core_layer 	interests[2] 	90478
scalar simple_scenario_network.node[2].core_layer 	data[2] 	88568
scalar simple_scenario_network.node[2].content_store 	p_hit[2] 	0.021110104113707
scalar simple_scenario_network.node[2].content_store 	hits[2] 	1910
scalar simple_scenario_network.node[2].content_store 	misses[2] 	88568
scalar simple_scenario_network.node[3].core_layer 	interests[3] 	85006
scalar simple_scenario_network.node[3].core_layer 	repo_load[3] 	85006
scalar simple_scenario_network.node[3].core_layer 	data[3] 	0
scalar simple_scenario_network.node[3].content_store 	p_hit[3] 	0
scalar simple_scenario_network.node[3].content_store 	hits[3] 	0
scalar simple_scenario_network.node[3].content_store 	misses[3] 	85006
scalar simple_scenario_network.node[4].core_layer 	interests[4] 	88568
scalar simple_scenario_network.node[4].core_layer 	repo_load[4] 	88568
scalar simple_scenario_network.node[4].core_layer 	data[4] 	0
scalar simple_scenario_network.node[4].content_store 	p_hit[4] 	0
scalar simple_scenario_network.node[4].content_store 	hits[4] 	0
scalar simple_scenario_network.node[4].content_store 	misses[4] 	88568
scalar simple_scenario_network.client[0] 	hdistance[0] 	2.9109097982549
scalar simple_scenario_network.client[0] 	downloads[0] 	179930
scalar simple_scenario_network.client[0] 	avg_time[0] 	0.001997997064
