version 2
run General-38-20140630-13:25:00-25917
attr D fix0.01
attr F spr
attr R lru
attr a 1
attr configname General
attr csize 1e3
attr ctlg 1e5
attr datetime 20140630-13:25:00
attr experiment General
attr inifile omnetpp.ini
attr iterationvars "$net=abilene_cost, $rep=12, $priceratiovalue=10, $weights=0.333_0.333_0.334, $lambda=100, $a=1, $ctlg=1e5, $F=spr, $ttl=1000, $D=fix0.01, $xi=1, $R=lru, $csize=1e3, $pricebits=0, $window=60, $variance=0.05, $mytime=1800"
attr iterationvars2 "$net=abilene_cost, $rep=12, $priceratiovalue=10, $weights=0.333_0.333_0.334, $lambda=100, $a=1, $ctlg=1e5, $F=spr, $ttl=1000, $D=fix0.01, $xi=1, $R=lru, $csize=1e3, $pricebits=0, $window=60, $variance=0.05, $mytime=1800, $repetition=0"
attr lambda 100
attr measurement "$net=abilene_cost, $rep=12, $priceratiovalue=10, $weights=0.333_0.333_0.334, $lambda=100, $a=1, $ctlg=1e5, $F=spr, $ttl=1000, $D=fix0.01, $xi=1, $R=lru, $csize=1e3, $pricebits=0, $window=60, $variance=0.05, $mytime=1800"
attr mytime 1800
attr net abilene_cost
attr network "networks.${net=geant_cost, abilene_cost}_network"
attr pricebits 0
attr priceratiovalue 10
attr processid 25917
attr rep 12
attr repetition 0
attr replication #0
attr resultdir results
attr runnumber 38
attr seedset 12
attr ttl 1000
attr variance 0.05
attr weights 0.333_0.333_0.334
attr window 60
attr xi 1

scalar . 	a 	1
scalar . 	csize 	1e3
scalar . 	ctlg 	1e5
scalar . 	lambda 	100
scalar . 	mytime 	1800
scalar . 	pricebits 	0
scalar . 	priceratiovalue 	10
scalar . 	rep 	12
scalar . 	ttl 	1000
scalar . 	variance 	0.05
scalar . 	window 	60
scalar . 	xi 	1
scalar abilene_cost_network.content_distribution 	repo-0 	11
scalar abilene_cost_network.content_distribution 	repo-1 	12
scalar abilene_cost_network.content_distribution 	repo-2 	13
scalar abilene_cost_network.content_distribution 	client-0 	5
scalar abilene_cost_network.content_distribution 	client-1 	0
scalar abilene_cost_network.content_distribution 	client-2 	9
scalar abilene_cost_network.content_distribution 	repo-0_card 	33376
scalar abilene_cost_network.content_distribution 	repo-1_card 	33439
scalar abilene_cost_network.content_distribution 	repo-2_card 	33185
scalar abilene_cost_network.statistics 	repo_popularity[0] 	0.3146103286495
scalar abilene_cost_network.statistics 	repo_popularity[1] 	0.33182472258399
scalar abilene_cost_network.statistics 	repo_popularity[2] 	0.35356494876651
scalar abilene_cost_network.statistics 	stabilization_time 	544.3
scalar abilene_cost_network.node[1].face$o[4].channel 	price[1] 	0
scalar abilene_cost_network.node[1].face$o[4].channel 	represented_price[1] 	0
scalar abilene_cost_network.node[7].face$o[4].channel 	price[7] 	0
scalar abilene_cost_network.node[7].face$o[4].channel 	represented_price[7] 	0
scalar abilene_cost_network.node[10].face$o[4].channel 	price[10] 	0
scalar abilene_cost_network.node[10].face$o[4].channel 	represented_price[10] 	0
scalar abilene_cost_network.node[11].face$o[1].channel 	price[11] 	0
scalar abilene_cost_network.node[11].face$o[1].channel 	represented_price[11] 	0
scalar abilene_cost_network.node[12].face$o[1].channel 	price[12] 	1
scalar abilene_cost_network.node[12].face$o[1].channel 	represented_price[12] 	1
scalar abilene_cost_network.node[13].face$o[1].channel 	price[13] 	10
scalar abilene_cost_network.node[13].face$o[1].channel 	represented_price[13] 	10
scalar abilene_cost_network.statistics 	p_hit 	0.17079443228242
scalar abilene_cost_network.statistics 	interests 	111653.85714286
scalar abilene_cost_network.statistics 	data 	73110.785714286
scalar abilene_cost_network.statistics 	hdistance 	2.4024940660969
scalar abilene_cost_network.statistics 	avg_time 	0.009129126854
scalar abilene_cost_network.statistics 	downloads 	539536
scalar abilene_cost_network.statistics 	total_cost 	997919
scalar abilene_cost_network.statistics 	total_replicas 	100000
scalar abilene_cost_network.statistics 	inner_hit 	0.49482889000919
scalar abilene_cost_network.statistics 	interests_sent 	539604
scalar abilene_cost_network.node[0].core_layer 	interests[0] 	179421
scalar abilene_cost_network.node[0].core_layer 	data[0] 	109515
scalar abilene_cost_network.node[0].core_layer 	repo_int[0] 	272558
scalar abilene_cost_network.node[0].content_store 	p_hit[0] 	0.38950290099821
scalar abilene_cost_network.node[0].content_store 	hits[0] 	69885
scalar abilene_cost_network.node[0].content_store 	misses[0] 	109536
scalar abilene_cost_network.node[0].content_store 	decision_yes[0] 	1113
scalar abilene_cost_network.node[0].content_store 	decision_no[0] 	108402
scalar abilene_cost_network.node[0].content_store 	decision_ratio[0] 	0.010162991371045
scalar abilene_cost_network.node[1].core_layer 	interests[1] 	168445
scalar abilene_cost_network.node[1].core_layer 	data[1] 	157404
scalar abilene_cost_network.node[1].content_store 	p_hit[1] 	0.065546617590311
scalar abilene_cost_network.node[1].content_store 	hits[1] 	11041
scalar abilene_cost_network.node[1].content_store 	misses[1] 	157404
scalar abilene_cost_network.node[1].content_store 	decision_yes[1] 	1618
scalar abilene_cost_network.node[1].content_store 	decision_no[1] 	155786
scalar abilene_cost_network.node[1].content_store 	decision_ratio[1] 	0.010279281339737
scalar abilene_cost_network.node[2].core_layer 	interests[2] 	98319
scalar abilene_cost_network.node[2].core_layer 	data[2] 	94322
scalar abilene_cost_network.node[2].content_store 	p_hit[2] 	0.040653383374526
scalar abilene_cost_network.node[2].content_store 	hits[2] 	3997
scalar abilene_cost_network.node[2].content_store 	misses[2] 	94322
scalar abilene_cost_network.node[2].content_store 	decision_yes[2] 	948
scalar abilene_cost_network.node[2].content_store 	decision_no[2] 	93374
scalar abilene_cost_network.node[2].content_store 	decision_ratio[2] 	0.010050677466551
scalar abilene_cost_network.node[3].core_layer 	interests[3] 	99003
scalar abilene_cost_network.node[3].core_layer 	data[3] 	94579
scalar abilene_cost_network.node[3].content_store 	p_hit[3] 	0.044685514580366
scalar abilene_cost_network.node[3].content_store 	hits[3] 	4424
scalar abilene_cost_network.node[3].content_store 	misses[3] 	94579
scalar abilene_cost_network.node[3].content_store 	decision_yes[3] 	947
scalar abilene_cost_network.node[3].content_store 	decision_no[3] 	93632
scalar abilene_cost_network.node[3].content_store 	decision_ratio[3] 	0.010012793537677
scalar abilene_cost_network.node[4].core_layer 	interests[4] 	71216
scalar abilene_cost_network.node[4].core_layer 	data[4] 	65344
scalar abilene_cost_network.node[4].content_store 	p_hit[4] 	0.082453381262638
scalar abilene_cost_network.node[4].content_store 	hits[4] 	5872
scalar abilene_cost_network.node[4].content_store 	misses[4] 	65344
scalar abilene_cost_network.node[4].content_store 	decision_yes[4] 	660
scalar abilene_cost_network.node[4].content_store 	decision_no[4] 	64684
scalar abilene_cost_network.node[4].content_store 	decision_ratio[4] 	0.010100391772772
scalar abilene_cost_network.node[5].core_layer 	interests[5] 	179826
scalar abilene_cost_network.node[5].core_layer 	data[5] 	109308
scalar abilene_cost_network.node[5].content_store 	p_hit[5] 	0.39204008319153
scalar abilene_cost_network.node[5].content_store 	hits[5] 	70499
scalar abilene_cost_network.node[5].content_store 	misses[5] 	109327
scalar abilene_cost_network.node[5].content_store 	decision_yes[5] 	1121
scalar abilene_cost_network.node[5].content_store 	decision_no[5] 	108187
scalar abilene_cost_network.node[5].content_store 	decision_ratio[5] 	0.010255425037509
scalar abilene_cost_network.node[6].core_layer 	interests[6] 	38092
scalar abilene_cost_network.node[6].core_layer 	data[6] 	32820
scalar abilene_cost_network.node[6].content_store 	p_hit[6] 	0.13840176414995
scalar abilene_cost_network.node[6].content_store 	hits[6] 	5272
scalar abilene_cost_network.node[6].content_store 	misses[6] 	32820
scalar abilene_cost_network.node[6].content_store 	decision_yes[6] 	350
scalar abilene_cost_network.node[6].content_store 	decision_no[6] 	32470
scalar abilene_cost_network.node[6].content_store 	decision_ratio[6] 	0.01066422912858
scalar abilene_cost_network.node[7].core_layer 	interests[7] 	99837
scalar abilene_cost_network.node[7].core_layer 	data[7] 	90039
scalar abilene_cost_network.node[7].content_store 	p_hit[7] 	0.098139968148081
scalar abilene_cost_network.node[7].content_store 	hits[7] 	9798
scalar abilene_cost_network.node[7].content_store 	misses[7] 	90039
scalar abilene_cost_network.node[7].content_store 	decision_yes[7] 	876
scalar abilene_cost_network.node[7].content_store 	decision_no[7] 	89163
scalar abilene_cost_network.node[7].content_store 	decision_ratio[7] 	0.0097291173824676
scalar abilene_cost_network.node[8].core_layer 	interests[8] 	38713
scalar abilene_cost_network.node[8].core_layer 	data[8] 	34568
scalar abilene_cost_network.node[8].content_store 	p_hit[8] 	0.10709580760985
scalar abilene_cost_network.node[8].content_store 	hits[8] 	4146
scalar abilene_cost_network.node[8].content_store 	misses[8] 	34567
scalar abilene_cost_network.node[8].content_store 	decision_yes[8] 	358
scalar abilene_cost_network.node[8].content_store 	decision_no[8] 	34210
scalar abilene_cost_network.node[8].content_store 	decision_ratio[8] 	0.010356398981717
scalar abilene_cost_network.node[9].core_layer 	interests[9] 	180357
scalar abilene_cost_network.node[9].core_layer 	data[9] 	109858
scalar abilene_cost_network.node[9].content_store 	p_hit[9] 	0.39073060651929
scalar abilene_cost_network.node[9].content_store 	hits[9] 	70471
scalar abilene_cost_network.node[9].content_store 	misses[9] 	109886
scalar abilene_cost_network.node[9].content_store 	decision_yes[9] 	1133
scalar abilene_cost_network.node[9].content_store 	decision_no[9] 	108725
scalar abilene_cost_network.node[9].content_store 	decision_ratio[9] 	0.010313313550219
scalar abilene_cost_network.node[10].core_layer 	interests[10] 	137367
scalar abilene_cost_network.node[10].core_layer 	data[10] 	125794
scalar abilene_cost_network.node[10].content_store 	p_hit[10] 	0.084248764259247
scalar abilene_cost_network.node[10].content_store 	hits[10] 	11573
scalar abilene_cost_network.node[10].content_store 	misses[10] 	125794
scalar abilene_cost_network.node[10].content_store 	decision_yes[10] 	1281
scalar abilene_cost_network.node[10].content_store 	decision_no[10] 	124513
scalar abilene_cost_network.node[10].content_store 	decision_ratio[10] 	0.010183315579439
scalar abilene_cost_network.node[11].core_layer 	interests[11] 	91731
scalar abilene_cost_network.node[11].core_layer 	repo_load[11] 	91731
scalar abilene_cost_network.node[11].core_layer 	data[11] 	0
scalar abilene_cost_network.node[11].content_store 	p_hit[11] 	0
scalar abilene_cost_network.node[11].content_store 	hits[11] 	0
scalar abilene_cost_network.node[11].content_store 	misses[11] 	91731
scalar abilene_cost_network.node[11].content_store 	decision_yes[11] 	0
scalar abilene_cost_network.node[11].content_store 	decision_no[11] 	91731
scalar abilene_cost_network.node[11].content_store 	decision_ratio[11] 	0
scalar abilene_cost_network.node[12].core_layer 	interests[12] 	90039
scalar abilene_cost_network.node[12].core_layer 	repo_load[12] 	90039
scalar abilene_cost_network.node[12].core_layer 	data[12] 	0
scalar abilene_cost_network.node[12].content_store 	p_hit[12] 	0
scalar abilene_cost_network.node[12].content_store 	hits[12] 	0
scalar abilene_cost_network.node[12].content_store 	misses[12] 	90039
scalar abilene_cost_network.node[12].content_store 	decision_yes[12] 	0
scalar abilene_cost_network.node[12].content_store 	decision_no[12] 	90039
scalar abilene_cost_network.node[12].content_store 	decision_ratio[12] 	0
scalar abilene_cost_network.node[13].core_layer 	interests[13] 	90788
scalar abilene_cost_network.node[13].core_layer 	repo_load[13] 	90788
scalar abilene_cost_network.node[13].core_layer 	data[13] 	0
scalar abilene_cost_network.node[13].content_store 	p_hit[13] 	0
scalar abilene_cost_network.node[13].content_store 	hits[13] 	0
scalar abilene_cost_network.node[13].content_store 	misses[13] 	90788
scalar abilene_cost_network.node[13].content_store 	decision_yes[13] 	0
scalar abilene_cost_network.node[13].content_store 	decision_no[13] 	90788
scalar abilene_cost_network.node[13].content_store 	decision_ratio[13] 	0
scalar abilene_cost_network.client[0] 	hdistance[0] 	2.2116945373467
scalar abilene_cost_network.client[0] 	downloads[0] 	179400
scalar abilene_cost_network.client[0] 	avg_time[0] 	0.008970247869
scalar abilene_cost_network.client[0] 	interests_sent[0] 	179421
scalar abilene_cost_network.client[5] 	hdistance[5] 	2.9739331616678
scalar abilene_cost_network.client[5] 	downloads[5] 	179807
scalar abilene_cost_network.client[5] 	avg_time[5] 	0.010589580884
scalar abilene_cost_network.client[5] 	interests_sent[5] 	179826
scalar abilene_cost_network.client[9] 	hdistance[9] 	2.0218544992763
scalar abilene_cost_network.client[9] 	downloads[9] 	180329
scalar abilene_cost_network.client[9] 	avg_time[9] 	0.007827551809
scalar abilene_cost_network.client[9] 	interests_sent[9] 	180357
