version 2
run General-38-20140627-19:46:00-15438
attr D fix0.01
attr F spr
attr R lru
attr a 1
attr configname General
attr csize 1e3
attr ctlg 1e5
attr datetime 20140627-19:46:00
attr experiment General
attr inifile omnetpp.ini
attr iterationvars "$net=abilene_cost, $rep=19, $priceratiovalue=10, $weights=0.333_0.333_0.334, $lambda=100, $a=1, $ctlg=1e5, $F=spr, $ttl=1000, $D=fix0.01, $xi=1, $R=lru, $csize=1e3, $pricebits=0, $window=60, $variance=0.05, $mytime=1800"
attr iterationvars2 "$net=abilene_cost, $rep=19, $priceratiovalue=10, $weights=0.333_0.333_0.334, $lambda=100, $a=1, $ctlg=1e5, $F=spr, $ttl=1000, $D=fix0.01, $xi=1, $R=lru, $csize=1e3, $pricebits=0, $window=60, $variance=0.05, $mytime=1800, $repetition=0"
attr lambda 100
attr measurement "$net=abilene_cost, $rep=19, $priceratiovalue=10, $weights=0.333_0.333_0.334, $lambda=100, $a=1, $ctlg=1e5, $F=spr, $ttl=1000, $D=fix0.01, $xi=1, $R=lru, $csize=1e3, $pricebits=0, $window=60, $variance=0.05, $mytime=1800"
attr mytime 1800
attr net abilene_cost
attr network "networks.${net=geant_cost, abilene_cost}_network"
attr pricebits 0
attr priceratiovalue 10
attr processid 15438
attr rep 19
attr repetition 0
attr replication #0
attr resultdir results
attr runnumber 38
attr seedset 19
attr ttl 1000
attr variance 0.05
attr weights 0.333_0.333_0.334
attr window 60
attr xi 1

scalar . 	a 	1
scalar . 	csize 	1e3
scalar . 	ctlg 	1e5
scalar . 	lambda 	100
scalar . 	mytime 	1800
scalar . 	pricebits 	0
scalar . 	priceratiovalue 	10
scalar . 	rep 	19
scalar . 	ttl 	1000
scalar . 	variance 	0.05
scalar . 	window 	60
scalar . 	xi 	1
scalar abilene_cost_network.content_distribution 	repo-0 	11
scalar abilene_cost_network.content_distribution 	repo-1 	12
scalar abilene_cost_network.content_distribution 	repo-2 	13
scalar abilene_cost_network.content_distribution 	client-0 	5
scalar abilene_cost_network.content_distribution 	client-1 	0
scalar abilene_cost_network.content_distribution 	client-2 	9
scalar abilene_cost_network.content_distribution 	repo-0_card 	33368
scalar abilene_cost_network.content_distribution 	repo-1_card 	33389
scalar abilene_cost_network.content_distribution 	repo-2_card 	33243
scalar abilene_cost_network.statistics 	repo_popularity[0] 	0.2704974433948
scalar abilene_cost_network.statistics 	repo_popularity[1] 	0.39472808551936
scalar abilene_cost_network.statistics 	repo_popularity[2] 	0.33477447108584
scalar abilene_cost_network.statistics 	stabilization_time 	485.5
scalar abilene_cost_network.node[1].face$o[4].channel 	price[1] 	0
scalar abilene_cost_network.node[1].face$o[4].channel 	represented_price[1] 	0
scalar abilene_cost_network.node[7].face$o[4].channel 	price[7] 	0
scalar abilene_cost_network.node[7].face$o[4].channel 	represented_price[7] 	0
scalar abilene_cost_network.node[10].face$o[4].channel 	price[10] 	0
scalar abilene_cost_network.node[10].face$o[4].channel 	represented_price[10] 	0
scalar abilene_cost_network.node[11].face$o[1].channel 	price[11] 	0
scalar abilene_cost_network.node[11].face$o[1].channel 	represented_price[11] 	0
scalar abilene_cost_network.node[12].face$o[1].channel 	price[12] 	1
scalar abilene_cost_network.node[12].face$o[1].channel 	represented_price[12] 	1
scalar abilene_cost_network.node[13].face$o[1].channel 	price[13] 	10
scalar abilene_cost_network.node[13].face$o[1].channel 	represented_price[13] 	10
scalar abilene_cost_network.statistics 	p_hit 	0.17104766148476
scalar abilene_cost_network.statistics 	interests 	111569.57142857
scalar abilene_cost_network.statistics 	data 	73049.642857143
scalar abilene_cost_network.statistics 	hdistance 	2.4010903285804
scalar abilene_cost_network.statistics 	avg_time 	0.009091993412
scalar abilene_cost_network.statistics 	downloads 	539181
scalar abilene_cost_network.statistics 	total_cost 	1008564
scalar abilene_cost_network.statistics 	total_replicas 	100000
scalar abilene_cost_network.statistics 	inner_hit 	0.49551263861301
scalar abilene_cost_network.statistics 	interests_sent 	539276
scalar abilene_cost_network.node[0].core_layer 	interests[0] 	179133
scalar abilene_cost_network.node[0].core_layer 	data[0] 	108952
scalar abilene_cost_network.node[0].core_layer 	repo_int[0] 	272010
scalar abilene_cost_network.node[0].content_store 	p_hit[0] 	0.39163638190618
scalar abilene_cost_network.node[0].content_store 	hits[0] 	70155
scalar abilene_cost_network.node[0].content_store 	misses[0] 	108978
scalar abilene_cost_network.node[0].content_store 	decision_yes[0] 	1072
scalar abilene_cost_network.node[0].content_store 	decision_no[0] 	107880
scalar abilene_cost_network.node[0].content_store 	decision_ratio[0] 	0.0098391952419414
scalar abilene_cost_network.node[1].core_layer 	interests[1] 	169448
scalar abilene_cost_network.node[1].core_layer 	data[1] 	158419
scalar abilene_cost_network.node[1].content_store 	p_hit[1] 	0.065081913035267
scalar abilene_cost_network.node[1].content_store 	hits[1] 	11028
scalar abilene_cost_network.node[1].content_store 	misses[1] 	158420
scalar abilene_cost_network.node[1].content_store 	decision_yes[1] 	1568
scalar abilene_cost_network.node[1].content_store 	decision_no[1] 	156851
scalar abilene_cost_network.node[1].content_store 	decision_ratio[1] 	0.0098978026625594
scalar abilene_cost_network.node[2].core_layer 	interests[2] 	98734
scalar abilene_cost_network.node[2].core_layer 	data[2] 	94725
scalar abilene_cost_network.node[2].content_store 	p_hit[2] 	0.040593919014726
scalar abilene_cost_network.node[2].content_store 	hits[2] 	4008
scalar abilene_cost_network.node[2].content_store 	misses[2] 	94726
scalar abilene_cost_network.node[2].content_store 	decision_yes[2] 	919
scalar abilene_cost_network.node[2].content_store 	decision_no[2] 	93806
scalar abilene_cost_network.node[2].content_store 	decision_ratio[2] 	0.0097017682765901
scalar abilene_cost_network.node[3].core_layer 	interests[3] 	99536
scalar abilene_cost_network.node[3].core_layer 	data[3] 	95369
scalar abilene_cost_network.node[3].content_store 	p_hit[3] 	0.041864250120559
scalar abilene_cost_network.node[3].content_store 	hits[3] 	4167
scalar abilene_cost_network.node[3].content_store 	misses[3] 	95369
scalar abilene_cost_network.node[3].content_store 	decision_yes[3] 	995
scalar abilene_cost_network.node[3].content_store 	decision_no[3] 	94374
scalar abilene_cost_network.node[3].content_store 	decision_ratio[3] 	0.010433159622099
scalar abilene_cost_network.node[4].core_layer 	interests[4] 	72731
scalar abilene_cost_network.node[4].core_layer 	data[4] 	66530
scalar abilene_cost_network.node[4].content_store 	p_hit[4] 	0.085259380456752
scalar abilene_cost_network.node[4].content_store 	hits[4] 	6201
scalar abilene_cost_network.node[4].content_store 	misses[4] 	66530
scalar abilene_cost_network.node[4].content_store 	decision_yes[4] 	664
scalar abilene_cost_network.node[4].content_store 	decision_no[4] 	65866
scalar abilene_cost_network.node[4].content_store 	decision_ratio[4] 	0.0099804599428829
scalar abilene_cost_network.node[5].core_layer 	interests[5] 	179973
scalar abilene_cost_network.node[5].core_layer 	data[5] 	109848
scalar abilene_cost_network.node[5].content_store 	p_hit[5] 	0.3894139676507
scalar abilene_cost_network.node[5].content_store 	hits[5] 	70084
scalar abilene_cost_network.node[5].content_store 	misses[5] 	109889
scalar abilene_cost_network.node[5].content_store 	decision_yes[5] 	1037
scalar abilene_cost_network.node[5].content_store 	decision_no[5] 	108811
scalar abilene_cost_network.node[5].content_store 	decision_ratio[5] 	0.0094403175296774
scalar abilene_cost_network.node[6].core_layer 	interests[6] 	37117
scalar abilene_cost_network.node[6].core_layer 	data[6] 	32159
scalar abilene_cost_network.node[6].content_store 	p_hit[6] 	0.13357760594876
scalar abilene_cost_network.node[6].content_store 	hits[6] 	4958
scalar abilene_cost_network.node[6].content_store 	misses[6] 	32159
scalar abilene_cost_network.node[6].content_store 	decision_yes[6] 	319
scalar abilene_cost_network.node[6].content_store 	decision_no[6] 	31840
scalar abilene_cost_network.node[6].content_store 	decision_ratio[6] 	0.0099194626698591
scalar abilene_cost_network.node[7].core_layer 	interests[7] 	95934
scalar abilene_cost_network.node[7].core_layer 	data[7] 	87344
scalar abilene_cost_network.node[7].content_store 	p_hit[7] 	0.089540725915734
scalar abilene_cost_network.node[7].content_store 	hits[7] 	8590
scalar abilene_cost_network.node[7].content_store 	misses[7] 	87344
scalar abilene_cost_network.node[7].content_store 	decision_yes[7] 	887
scalar abilene_cost_network.node[7].content_store 	decision_no[7] 	86457
scalar abilene_cost_network.node[7].content_store 	decision_ratio[7] 	0.010155248213959
scalar abilene_cost_network.node[8].core_layer 	interests[8] 	36903
scalar abilene_cost_network.node[8].core_layer 	data[8] 	31921
scalar abilene_cost_network.node[8].content_store 	p_hit[8] 	0.13500257431645
scalar abilene_cost_network.node[8].content_store 	hits[8] 	4982
scalar abilene_cost_network.node[8].content_store 	misses[8] 	31921
scalar abilene_cost_network.node[8].content_store 	decision_yes[8] 	313
scalar abilene_cost_network.node[8].content_store 	decision_no[8] 	31608
scalar abilene_cost_network.node[8].content_store 	decision_ratio[8] 	0.0098054572225181
scalar abilene_cost_network.node[9].core_layer 	interests[9] 	180170
scalar abilene_cost_network.node[9].core_layer 	data[9] 	109778
scalar abilene_cost_network.node[9].content_store 	p_hit[9] 	0.39054226563801
scalar abilene_cost_network.node[9].content_store 	hits[9] 	70364
scalar abilene_cost_network.node[9].content_store 	misses[9] 	109806
scalar abilene_cost_network.node[9].content_store 	decision_yes[9] 	1064
scalar abilene_cost_network.node[9].content_store 	decision_no[9] 	108714
scalar abilene_cost_network.node[9].content_store 	decision_ratio[9] 	0.0096922880722914
scalar abilene_cost_network.node[10].core_layer 	interests[10] 	140285
scalar abilene_cost_network.node[10].core_layer 	data[10] 	127650
scalar abilene_cost_network.node[10].content_store 	p_hit[10] 	0.09006665003386
scalar abilene_cost_network.node[10].content_store 	hits[10] 	12635
scalar abilene_cost_network.node[10].content_store 	misses[10] 	127650
scalar abilene_cost_network.node[10].content_store 	decision_yes[10] 	1246
scalar abilene_cost_network.node[10].content_store 	decision_no[10] 	126404
scalar abilene_cost_network.node[10].content_store 	decision_ratio[10] 	0.0097610654132393
scalar abilene_cost_network.node[11].core_layer 	interests[11] 	92544
scalar abilene_cost_network.node[11].core_layer 	repo_load[11] 	92544
scalar abilene_cost_network.node[11].core_layer 	data[11] 	0
scalar abilene_cost_network.node[11].content_store 	p_hit[11] 	0
scalar abilene_cost_network.node[11].content_store 	hits[11] 	0
scalar abilene_cost_network.node[11].content_store 	misses[11] 	92544
scalar abilene_cost_network.node[11].content_store 	decision_yes[11] 	0
scalar abilene_cost_network.node[11].content_store 	decision_no[11] 	92544
scalar abilene_cost_network.node[11].content_store 	decision_ratio[11] 	0
scalar abilene_cost_network.node[12].core_layer 	interests[12] 	87344
scalar abilene_cost_network.node[12].core_layer 	repo_load[12] 	87344
scalar abilene_cost_network.node[12].core_layer 	data[12] 	0
scalar abilene_cost_network.node[12].content_store 	p_hit[12] 	0
scalar abilene_cost_network.node[12].content_store 	hits[12] 	0
scalar abilene_cost_network.node[12].content_store 	misses[12] 	87344
scalar abilene_cost_network.node[12].content_store 	decision_yes[12] 	0
scalar abilene_cost_network.node[12].content_store 	decision_no[12] 	87344
scalar abilene_cost_network.node[12].content_store 	decision_ratio[12] 	0
scalar abilene_cost_network.node[13].core_layer 	interests[13] 	92122
scalar abilene_cost_network.node[13].core_layer 	repo_load[13] 	92122
scalar abilene_cost_network.node[13].core_layer 	data[13] 	0
scalar abilene_cost_network.node[13].content_store 	p_hit[13] 	0
scalar abilene_cost_network.node[13].content_store 	hits[13] 	0
scalar abilene_cost_network.node[13].content_store 	misses[13] 	92122
scalar abilene_cost_network.node[13].content_store 	decision_yes[13] 	0
scalar abilene_cost_network.node[13].content_store 	decision_no[13] 	92122
scalar abilene_cost_network.node[13].content_store 	decision_ratio[13] 	0
scalar abilene_cost_network.client[0] 	hdistance[0] 	2.2038222961693
scalar abilene_cost_network.client[0] 	downloads[0] 	179107
scalar abilene_cost_network.client[0] 	avg_time[0] 	0.00887517185
scalar abilene_cost_network.client[0] 	interests_sent[0] 	179133
scalar abilene_cost_network.client[5] 	hdistance[5] 	2.9937420803415
scalar abilene_cost_network.client[5] 	downloads[5] 	179932
scalar abilene_cost_network.client[5] 	avg_time[5] 	0.01073344956
scalar abilene_cost_network.client[5] 	interests_sent[5] 	179973
scalar abilene_cost_network.client[9] 	hdistance[9] 	2.0057066092305
scalar abilene_cost_network.client[9] 	downloads[9] 	180142
scalar abilene_cost_network.client[9] 	avg_time[9] 	0.007667358826
scalar abilene_cost_network.client[9] 	interests_sent[9] 	180170
