version 2
run General-22-20140626-16:53:00-16735
attr D fix0.01
attr F spr
attr R lru
attr a 1
attr configname General
attr csize 1e3
attr ctlg 1e5
attr datetime 20140626-16:53:00
attr experiment General
attr inifile omnetpp.ini
attr iterationvars "$net=abilene_cost, $rep=7, $priceratiovalue=10, $weights=0.333_0.333_0.334, $lambda=100, $a=1, $ctlg=1e5, $F=spr, $ttl=1000, $D=fix0.01, $xi=1, $R=lru, $csize=1e3, $pricebits=0, $mytime=1800"
attr iterationvars2 "$net=abilene_cost, $rep=7, $priceratiovalue=10, $weights=0.333_0.333_0.334, $lambda=100, $a=1, $ctlg=1e5, $F=spr, $ttl=1000, $D=fix0.01, $xi=1, $R=lru, $csize=1e3, $pricebits=0, $mytime=1800, $repetition=0"
attr lambda 100
attr measurement "$net=abilene_cost, $rep=7, $priceratiovalue=10, $weights=0.333_0.333_0.334, $lambda=100, $a=1, $ctlg=1e5, $F=spr, $ttl=1000, $D=fix0.01, $xi=1, $R=lru, $csize=1e3, $pricebits=0, $mytime=1800"
attr mytime 1800
attr net abilene_cost
attr network "networks.${net=geant_cost, abilene_cost}_network"
attr pricebits 0
attr priceratiovalue 10
attr processid 16735
attr rep 7
attr repetition 0
attr replication #0
attr resultdir results
attr runnumber 22
attr seedset 7
attr ttl 1000
attr weights 0.333_0.333_0.334
attr xi 1

scalar . 	a 	1
scalar . 	csize 	1e3
scalar . 	ctlg 	1e5
scalar . 	lambda 	100
scalar . 	mytime 	1800
scalar . 	pricebits 	0
scalar . 	priceratiovalue 	10
scalar . 	rep 	7
scalar . 	ttl 	1000
scalar . 	xi 	1
scalar abilene_cost_network.content_distribution 	repo-0 	11
scalar abilene_cost_network.content_distribution 	repo-1 	12
scalar abilene_cost_network.content_distribution 	repo-2 	13
scalar abilene_cost_network.content_distribution 	client-0 	5
scalar abilene_cost_network.content_distribution 	client-1 	0
scalar abilene_cost_network.content_distribution 	client-2 	9
scalar abilene_cost_network.content_distribution 	repo-0_card 	33104
scalar abilene_cost_network.content_distribution 	repo-1_card 	33508
scalar abilene_cost_network.content_distribution 	repo-2_card 	33388
scalar abilene_cost_network.statistics 	repo_popularity[0] 	0.34609068621501
scalar abilene_cost_network.statistics 	repo_popularity[1] 	0.29388785961082
scalar abilene_cost_network.statistics 	repo_popularity[2] 	0.36002145417417
scalar abilene_cost_network.statistics 	stabilization_time 	536.5
scalar abilene_cost_network.node[1].face$o[4].channel 	price[1] 	0
scalar abilene_cost_network.node[1].face$o[4].channel 	represented_price[1] 	0
scalar abilene_cost_network.node[7].face$o[4].channel 	price[7] 	0
scalar abilene_cost_network.node[7].face$o[4].channel 	represented_price[7] 	0
scalar abilene_cost_network.node[10].face$o[4].channel 	price[10] 	0
scalar abilene_cost_network.node[10].face$o[4].channel 	represented_price[10] 	0
scalar abilene_cost_network.node[11].face$o[1].channel 	price[11] 	0
scalar abilene_cost_network.node[11].face$o[1].channel 	represented_price[11] 	0
scalar abilene_cost_network.node[12].face$o[1].channel 	price[12] 	1
scalar abilene_cost_network.node[12].face$o[1].channel 	represented_price[12] 	1
scalar abilene_cost_network.node[13].face$o[1].channel 	price[13] 	10
scalar abilene_cost_network.node[13].face$o[1].channel 	represented_price[13] 	10
scalar abilene_cost_network.statistics 	p_hit 	0.17110476736781
scalar abilene_cost_network.statistics 	interests 	111821.21428571
scalar abilene_cost_network.statistics 	data 	73217.928571429
scalar abilene_cost_network.statistics 	hdistance 	2.4013184517017
scalar abilene_cost_network.statistics 	avg_time 	0.009109730499
scalar abilene_cost_network.statistics 	downloads 	540359
scalar abilene_cost_network.statistics 	total_cost 	1027361
scalar abilene_cost_network.statistics 	total_replicas 	100000
scalar abilene_cost_network.statistics 	inner_hit 	0.49571673646594
scalar abilene_cost_network.statistics 	interests_sent 	540446
scalar abilene_cost_network.node[0].core_layer 	interests[0] 	180160
scalar abilene_cost_network.node[0].core_layer 	data[0] 	109752
scalar abilene_cost_network.node[0].core_layer 	repo_int[0] 	272494
scalar abilene_cost_network.node[0].content_store 	p_hit[0] 	0.39065275310835
scalar abilene_cost_network.node[0].content_store 	hits[0] 	70380
scalar abilene_cost_network.node[0].content_store 	misses[0] 	109780
scalar abilene_cost_network.node[0].content_store 	decision_yes[0] 	1074
scalar abilene_cost_network.node[0].content_store 	decision_no[0] 	108678
scalar abilene_cost_network.node[0].content_store 	decision_ratio[0] 	0.0097856986660835
scalar abilene_cost_network.node[1].core_layer 	interests[1] 	171013
scalar abilene_cost_network.node[1].core_layer 	data[1] 	159357
scalar abilene_cost_network.node[1].content_store 	p_hit[1] 	0.068164408553736
scalar abilene_cost_network.node[1].content_store 	hits[1] 	11657
scalar abilene_cost_network.node[1].content_store 	misses[1] 	159356
scalar abilene_cost_network.node[1].content_store 	decision_yes[1] 	1559
scalar abilene_cost_network.node[1].content_store 	decision_no[1] 	157798
scalar abilene_cost_network.node[1].content_store 	decision_ratio[1] 	0.0097830656952628
scalar abilene_cost_network.node[2].core_layer 	interests[2] 	98620
scalar abilene_cost_network.node[2].core_layer 	data[2] 	95030
scalar abilene_cost_network.node[2].content_store 	p_hit[2] 	0.036392212532955
scalar abilene_cost_network.node[2].content_store 	hits[2] 	3589
scalar abilene_cost_network.node[2].content_store 	misses[2] 	95031
scalar abilene_cost_network.node[2].content_store 	decision_yes[2] 	991
scalar abilene_cost_network.node[2].content_store 	decision_no[2] 	94039
scalar abilene_cost_network.node[2].content_store 	decision_ratio[2] 	0.010428285804483
scalar abilene_cost_network.node[3].core_layer 	interests[3] 	100259
scalar abilene_cost_network.node[3].core_layer 	data[3] 	95942
scalar abilene_cost_network.node[3].content_store 	p_hit[3] 	0.043048504373672
scalar abilene_cost_network.node[3].content_store 	hits[3] 	4316
scalar abilene_cost_network.node[3].content_store 	misses[3] 	95943
scalar abilene_cost_network.node[3].content_store 	decision_yes[3] 	969
scalar abilene_cost_network.node[3].content_store 	decision_no[3] 	94973
scalar abilene_cost_network.node[3].content_store 	decision_ratio[3] 	0.010099851993913
scalar abilene_cost_network.node[4].core_layer 	interests[4] 	73305
scalar abilene_cost_network.node[4].core_layer 	data[4] 	66467
scalar abilene_cost_network.node[4].content_store 	p_hit[4] 	0.093267853488848
scalar abilene_cost_network.node[4].content_store 	hits[4] 	6837
scalar abilene_cost_network.node[4].content_store 	misses[4] 	66468
scalar abilene_cost_network.node[4].content_store 	decision_yes[4] 	642
scalar abilene_cost_network.node[4].content_store 	decision_no[4] 	65825
scalar abilene_cost_network.node[4].content_store 	decision_ratio[4] 	0.00965892849083
scalar abilene_cost_network.node[5].core_layer 	interests[5] 	180118
scalar abilene_cost_network.node[5].core_layer 	data[5] 	109308
scalar abilene_cost_network.node[5].content_store 	p_hit[5] 	0.39295906017167
scalar abilene_cost_network.node[5].content_store 	hits[5] 	70779
scalar abilene_cost_network.node[5].content_store 	misses[5] 	109339
scalar abilene_cost_network.node[5].content_store 	decision_yes[5] 	1032
scalar abilene_cost_network.node[5].content_store 	decision_no[5] 	108276
scalar abilene_cost_network.node[5].content_store 	decision_ratio[5] 	0.0094412119881436
scalar abilene_cost_network.node[6].core_layer 	interests[6] 	36004
scalar abilene_cost_network.node[6].core_layer 	data[6] 	32290
scalar abilene_cost_network.node[6].content_store 	p_hit[6] 	0.10315520497722
scalar abilene_cost_network.node[6].content_store 	hits[6] 	3714
scalar abilene_cost_network.node[6].content_store 	misses[6] 	32290
scalar abilene_cost_network.node[6].content_store 	decision_yes[6] 	307
scalar abilene_cost_network.node[6].content_store 	decision_no[6] 	31983
scalar abilene_cost_network.node[6].content_store 	decision_ratio[6] 	0.0095075874883865
scalar abilene_cost_network.node[7].core_layer 	interests[7] 	97372
scalar abilene_cost_network.node[7].core_layer 	data[7] 	88761
scalar abilene_cost_network.node[7].content_store 	p_hit[7] 	0.088434046748552
scalar abilene_cost_network.node[7].content_store 	hits[7] 	8611
scalar abilene_cost_network.node[7].content_store 	misses[7] 	88761
scalar abilene_cost_network.node[7].content_store 	decision_yes[7] 	856
scalar abilene_cost_network.node[7].content_store 	decision_no[7] 	87905
scalar abilene_cost_network.node[7].content_store 	decision_ratio[7] 	0.0096438751253366
scalar abilene_cost_network.node[8].core_layer 	interests[8] 	37040
scalar abilene_cost_network.node[8].core_layer 	data[8] 	32368
scalar abilene_cost_network.node[8].content_store 	p_hit[8] 	0.12613390928726
scalar abilene_cost_network.node[8].content_store 	hits[8] 	4672
scalar abilene_cost_network.node[8].content_store 	misses[8] 	32368
scalar abilene_cost_network.node[8].content_store 	decision_yes[8] 	312
scalar abilene_cost_network.node[8].content_store 	decision_no[8] 	32056
scalar abilene_cost_network.node[8].content_store 	decision_ratio[8] 	0.0096391497775581
scalar abilene_cost_network.node[9].core_layer 	interests[9] 	180168
scalar abilene_cost_network.node[9].core_layer 	data[9] 	110281
scalar abilene_cost_network.node[9].content_store 	p_hit[9] 	0.38774366147152
scalar abilene_cost_network.node[9].content_store 	hits[9] 	69859
scalar abilene_cost_network.node[9].content_store 	misses[9] 	110309
scalar abilene_cost_network.node[9].content_store 	decision_yes[9] 	1107
scalar abilene_cost_network.node[9].content_store 	decision_no[9] 	109174
scalar abilene_cost_network.node[9].content_store 	decision_ratio[9] 	0.010037993852069
scalar abilene_cost_network.node[10].core_layer 	interests[10] 	138944
scalar abilene_cost_network.node[10].core_layer 	data[10] 	125495
scalar abilene_cost_network.node[10].content_store 	p_hit[10] 	0.096801589129433
scalar abilene_cost_network.node[10].content_store 	hits[10] 	13450
scalar abilene_cost_network.node[10].content_store 	misses[10] 	125494
scalar abilene_cost_network.node[10].content_store 	decision_yes[10] 	1188
scalar abilene_cost_network.node[10].content_store 	decision_no[10] 	124307
scalar abilene_cost_network.node[10].content_store 	decision_ratio[10] 	0.0094665126100641
scalar abilene_cost_network.node[11].core_layer 	interests[11] 	89873
scalar abilene_cost_network.node[11].core_layer 	repo_load[11] 	89873
scalar abilene_cost_network.node[11].core_layer 	data[11] 	0
scalar abilene_cost_network.node[11].content_store 	p_hit[11] 	0
scalar abilene_cost_network.node[11].content_store 	hits[11] 	0
scalar abilene_cost_network.node[11].content_store 	misses[11] 	89873
scalar abilene_cost_network.node[11].content_store 	decision_yes[11] 	0
scalar abilene_cost_network.node[11].content_store 	decision_no[11] 	89873
scalar abilene_cost_network.node[11].content_store 	decision_ratio[11] 	0
scalar abilene_cost_network.node[12].core_layer 	interests[12] 	88761
scalar abilene_cost_network.node[12].core_layer 	repo_load[12] 	88761
scalar abilene_cost_network.node[12].core_layer 	data[12] 	0
scalar abilene_cost_network.node[12].content_store 	p_hit[12] 	0
scalar abilene_cost_network.node[12].content_store 	hits[12] 	0
scalar abilene_cost_network.node[12].content_store 	misses[12] 	88761
scalar abilene_cost_network.node[12].content_store 	decision_yes[12] 	0
scalar abilene_cost_network.node[12].content_store 	decision_no[12] 	88761
scalar abilene_cost_network.node[12].content_store 	decision_ratio[12] 	0
scalar abilene_cost_network.node[13].core_layer 	interests[13] 	93860
scalar abilene_cost_network.node[13].core_layer 	repo_load[13] 	93860
scalar abilene_cost_network.node[13].core_layer 	data[13] 	0
scalar abilene_cost_network.node[13].content_store 	p_hit[13] 	0
scalar abilene_cost_network.node[13].content_store 	hits[13] 	0
scalar abilene_cost_network.node[13].content_store 	misses[13] 	93860
scalar abilene_cost_network.node[13].content_store 	decision_yes[13] 	0
scalar abilene_cost_network.node[13].content_store 	decision_no[13] 	93860
scalar abilene_cost_network.node[13].content_store 	decision_ratio[13] 	0
scalar abilene_cost_network.client[0] 	hdistance[0] 	2.2155752448205
scalar abilene_cost_network.client[0] 	downloads[0] 	180132
scalar abilene_cost_network.client[0] 	avg_time[0] 	0.008935772705
scalar abilene_cost_network.client[0] 	interests_sent[0] 	180160
scalar abilene_cost_network.client[5] 	hdistance[5] 	2.9772276732913
scalar abilene_cost_network.client[5] 	downloads[5] 	180087
scalar abilene_cost_network.client[5] 	avg_time[5] 	0.010660580118
scalar abilene_cost_network.client[5] 	interests_sent[5] 	180118
scalar abilene_cost_network.client[9] 	hdistance[9] 	2.0111524369934
scalar abilene_cost_network.client[9] 	downloads[9] 	180140
scalar abilene_cost_network.client[9] 	avg_time[9] 	0.007732838674
scalar abilene_cost_network.client[9] 	interests_sent[9] 	180168
