version 2
run General-46-20140627-19:47:16-22866
attr D fix0.01
attr F spr
attr R lru
attr a 1
attr configname General
attr csize 1e3
attr ctlg 1e5
attr datetime 20140627-19:47:16
attr experiment General
attr inifile omnetpp.ini
attr iterationvars "$net=abilene_cost, $rep=15, $priceratiovalue=10, $weights=0.333_0.333_0.334, $lambda=100, $a=1, $ctlg=1e5, $F=spr, $ttl=1000, $D=fix0.01, $xi=1, $R=lru, $csize=1e3, $pricebits=0, $window=60, $variance=0.05, $mytime=1800"
attr iterationvars2 "$net=abilene_cost, $rep=15, $priceratiovalue=10, $weights=0.333_0.333_0.334, $lambda=100, $a=1, $ctlg=1e5, $F=spr, $ttl=1000, $D=fix0.01, $xi=1, $R=lru, $csize=1e3, $pricebits=0, $window=60, $variance=0.05, $mytime=1800, $repetition=0"
attr lambda 100
attr measurement "$net=abilene_cost, $rep=15, $priceratiovalue=10, $weights=0.333_0.333_0.334, $lambda=100, $a=1, $ctlg=1e5, $F=spr, $ttl=1000, $D=fix0.01, $xi=1, $R=lru, $csize=1e3, $pricebits=0, $window=60, $variance=0.05, $mytime=1800"
attr mytime 1800
attr net abilene_cost
attr network "networks.${net=geant_cost, abilene_cost}_network"
attr pricebits 0
attr priceratiovalue 10
attr processid 22866
attr rep 15
attr repetition 0
attr replication #0
attr resultdir results
attr runnumber 46
attr seedset 15
attr ttl 1000
attr variance 0.05
attr weights 0.333_0.333_0.334
attr window 60
attr xi 1

scalar . 	a 	1
scalar . 	csize 	1e3
scalar . 	ctlg 	1e5
scalar . 	lambda 	100
scalar . 	mytime 	1800
scalar . 	pricebits 	0
scalar . 	priceratiovalue 	10
scalar . 	rep 	15
scalar . 	ttl 	1000
scalar . 	variance 	0.05
scalar . 	window 	60
scalar . 	xi 	1
scalar abilene_cost_network.content_distribution 	repo-0 	11
scalar abilene_cost_network.content_distribution 	repo-1 	12
scalar abilene_cost_network.content_distribution 	repo-2 	13
scalar abilene_cost_network.content_distribution 	client-0 	5
scalar abilene_cost_network.content_distribution 	client-1 	0
scalar abilene_cost_network.content_distribution 	client-2 	9
scalar abilene_cost_network.content_distribution 	repo-0_card 	33353
scalar abilene_cost_network.content_distribution 	repo-1_card 	33285
scalar abilene_cost_network.content_distribution 	repo-2_card 	33362
scalar abilene_cost_network.statistics 	repo_popularity[0] 	0.34920511897542
scalar abilene_cost_network.statistics 	repo_popularity[1] 	0.27009721586053
scalar abilene_cost_network.statistics 	repo_popularity[2] 	0.38069766516405
scalar abilene_cost_network.statistics 	stabilization_time 	517.3
scalar abilene_cost_network.node[1].face$o[4].channel 	price[1] 	0
scalar abilene_cost_network.node[1].face$o[4].channel 	represented_price[1] 	0
scalar abilene_cost_network.node[7].face$o[4].channel 	price[7] 	0
scalar abilene_cost_network.node[7].face$o[4].channel 	represented_price[7] 	0
scalar abilene_cost_network.node[10].face$o[4].channel 	price[10] 	0
scalar abilene_cost_network.node[10].face$o[4].channel 	represented_price[10] 	0
scalar abilene_cost_network.node[11].face$o[1].channel 	price[11] 	0
scalar abilene_cost_network.node[11].face$o[1].channel 	represented_price[11] 	0
scalar abilene_cost_network.node[12].face$o[1].channel 	price[12] 	1
scalar abilene_cost_network.node[12].face$o[1].channel 	represented_price[12] 	1
scalar abilene_cost_network.node[13].face$o[1].channel 	price[13] 	10
scalar abilene_cost_network.node[13].face$o[1].channel 	represented_price[13] 	10
scalar abilene_cost_network.statistics 	p_hit 	0.16947523256941
scalar abilene_cost_network.statistics 	interests 	111978.85714286
scalar abilene_cost_network.statistics 	data 	73405.357142857
scalar abilene_cost_network.statistics 	hdistance 	2.4108253252851
scalar abilene_cost_network.statistics 	avg_time 	0.009078867286
scalar abilene_cost_network.statistics 	downloads 	539963
scalar abilene_cost_network.statistics 	total_cost 	1016962
scalar abilene_cost_network.statistics 	total_replicas 	100000
scalar abilene_cost_network.statistics 	inner_hit 	0.49204852925108
scalar abilene_cost_network.statistics 	interests_sent 	540040
scalar abilene_cost_network.node[0].core_layer 	interests[0] 	180010
scalar abilene_cost_network.node[0].core_layer 	data[0] 	110574
scalar abilene_cost_network.node[0].core_layer 	repo_int[0] 	274275
scalar abilene_cost_network.node[0].content_store 	p_hit[0] 	0.38553413699239
scalar abilene_cost_network.node[0].content_store 	hits[0] 	69400
scalar abilene_cost_network.node[0].content_store 	misses[0] 	110610
scalar abilene_cost_network.node[0].content_store 	decision_yes[0] 	1081
scalar abilene_cost_network.node[0].content_store 	decision_no[0] 	109493
scalar abilene_cost_network.node[0].content_store 	decision_ratio[0] 	0.0097762584332664
scalar abilene_cost_network.node[1].core_layer 	interests[1] 	168584
scalar abilene_cost_network.node[1].core_layer 	data[1] 	158655
scalar abilene_cost_network.node[1].content_store 	p_hit[1] 	0.058914250462677
scalar abilene_cost_network.node[1].content_store 	hits[1] 	9932
scalar abilene_cost_network.node[1].content_store 	misses[1] 	158652
scalar abilene_cost_network.node[1].content_store 	decision_yes[1] 	1566
scalar abilene_cost_network.node[1].content_store 	decision_no[1] 	157089
scalar abilene_cost_network.node[1].content_store 	decision_ratio[1] 	0.0098704736692824
scalar abilene_cost_network.node[2].core_layer 	interests[2] 	99374
scalar abilene_cost_network.node[2].core_layer 	data[2] 	95404
scalar abilene_cost_network.node[2].content_store 	p_hit[2] 	0.039980276531085
scalar abilene_cost_network.node[2].content_store 	hits[2] 	3973
scalar abilene_cost_network.node[2].content_store 	misses[2] 	95401
scalar abilene_cost_network.node[2].content_store 	decision_yes[2] 	946
scalar abilene_cost_network.node[2].content_store 	decision_no[2] 	94458
scalar abilene_cost_network.node[2].content_store 	decision_ratio[2] 	0.0099157268039076
scalar abilene_cost_network.node[3].core_layer 	interests[3] 	100871
scalar abilene_cost_network.node[3].core_layer 	data[3] 	96698
scalar abilene_cost_network.node[3].content_store 	p_hit[3] 	0.041389497476976
scalar abilene_cost_network.node[3].content_store 	hits[3] 	4175
scalar abilene_cost_network.node[3].content_store 	misses[3] 	96696
scalar abilene_cost_network.node[3].content_store 	decision_yes[3] 	1000
scalar abilene_cost_network.node[3].content_store 	decision_no[3] 	95698
scalar abilene_cost_network.node[3].content_store 	decision_ratio[3] 	0.010341475521727
scalar abilene_cost_network.node[4].core_layer 	interests[4] 	73335
scalar abilene_cost_network.node[4].core_layer 	data[4] 	67369
scalar abilene_cost_network.node[4].content_store 	p_hit[4] 	0.08136633258335
scalar abilene_cost_network.node[4].content_store 	hits[4] 	5967
scalar abilene_cost_network.node[4].content_store 	misses[4] 	67368
scalar abilene_cost_network.node[4].content_store 	decision_yes[4] 	644
scalar abilene_cost_network.node[4].content_store 	decision_no[4] 	66725
scalar abilene_cost_network.node[4].content_store 	decision_ratio[4] 	0.0095592928498271
scalar abilene_cost_network.node[5].core_layer 	interests[5] 	180206
scalar abilene_cost_network.node[5].core_layer 	data[5] 	109757
scalar abilene_cost_network.node[5].content_store 	p_hit[5] 	0.39084159239981
scalar abilene_cost_network.node[5].content_store 	hits[5] 	70432
scalar abilene_cost_network.node[5].content_store 	misses[5] 	109774
scalar abilene_cost_network.node[5].content_store 	decision_yes[5] 	1100
scalar abilene_cost_network.node[5].content_store 	decision_no[5] 	108657
scalar abilene_cost_network.node[5].content_store 	decision_ratio[5] 	0.010022139817961
scalar abilene_cost_network.node[6].core_layer 	interests[6] 	36421
scalar abilene_cost_network.node[6].core_layer 	data[6] 	31775
scalar abilene_cost_network.node[6].content_store 	p_hit[6] 	0.12756376815573
scalar abilene_cost_network.node[6].content_store 	hits[6] 	4646
scalar abilene_cost_network.node[6].content_store 	misses[6] 	31775
scalar abilene_cost_network.node[6].content_store 	decision_yes[6] 	346
scalar abilene_cost_network.node[6].content_store 	decision_no[6] 	31429
scalar abilene_cost_network.node[6].content_store 	decision_ratio[6] 	0.010889063729347
scalar abilene_cost_network.node[7].core_layer 	interests[7] 	96061
scalar abilene_cost_network.node[7].core_layer 	data[7] 	87812
scalar abilene_cost_network.node[7].content_store 	p_hit[7] 	0.085872518503867
scalar abilene_cost_network.node[7].content_store 	hits[7] 	8249
scalar abilene_cost_network.node[7].content_store 	misses[7] 	87812
scalar abilene_cost_network.node[7].content_store 	decision_yes[7] 	912
scalar abilene_cost_network.node[7].content_store 	decision_no[7] 	86900
scalar abilene_cost_network.node[7].content_store 	decision_ratio[7] 	0.010385824260921
scalar abilene_cost_network.node[8].core_layer 	interests[8] 	36014
scalar abilene_cost_network.node[8].core_layer 	data[8] 	31940
scalar abilene_cost_network.node[8].content_store 	p_hit[8] 	0.11315044149497
scalar abilene_cost_network.node[8].content_store 	hits[8] 	4075
scalar abilene_cost_network.node[8].content_store 	misses[8] 	31939
scalar abilene_cost_network.node[8].content_store 	decision_yes[8] 	349
scalar abilene_cost_network.node[8].content_store 	decision_no[8] 	31591
scalar abilene_cost_network.node[8].content_store 	decision_ratio[8] 	0.010926737633062
scalar abilene_cost_network.node[9].core_layer 	interests[9] 	179824
scalar abilene_cost_network.node[9].core_layer 	data[9] 	109948
scalar abilene_cost_network.node[9].content_store 	p_hit[9] 	0.38844648100365
scalar abilene_cost_network.node[9].content_store 	hits[9] 	69852
scalar abilene_cost_network.node[9].content_store 	misses[9] 	109972
scalar abilene_cost_network.node[9].content_store 	decision_yes[9] 	1116
scalar abilene_cost_network.node[9].content_store 	decision_no[9] 	108832
scalar abilene_cost_network.node[9].content_store 	decision_ratio[9] 	0.0101502528468
scalar abilene_cost_network.node[10].core_layer 	interests[10] 	142729
scalar abilene_cost_network.node[10].core_layer 	data[10] 	127743
scalar abilene_cost_network.node[10].content_store 	p_hit[10] 	0.10499618157487
scalar abilene_cost_network.node[10].content_store 	hits[10] 	14986
scalar abilene_cost_network.node[10].content_store 	misses[10] 	127743
scalar abilene_cost_network.node[10].content_store 	decision_yes[10] 	1247
scalar abilene_cost_network.node[10].content_store 	decision_no[10] 	126496
scalar abilene_cost_network.node[10].content_store 	decision_ratio[10] 	0.0097617873386409
scalar abilene_cost_network.node[11].core_layer 	interests[11] 	93548
scalar abilene_cost_network.node[11].core_layer 	repo_load[11] 	93548
scalar abilene_cost_network.node[11].core_layer 	data[11] 	0
scalar abilene_cost_network.node[11].content_store 	p_hit[11] 	0
scalar abilene_cost_network.node[11].content_store 	hits[11] 	0
scalar abilene_cost_network.node[11].content_store 	misses[11] 	93548
scalar abilene_cost_network.node[11].content_store 	decision_yes[11] 	0
scalar abilene_cost_network.node[11].content_store 	decision_no[11] 	93548
scalar abilene_cost_network.node[11].content_store 	decision_ratio[11] 	0
scalar abilene_cost_network.node[12].core_layer 	interests[12] 	87812
scalar abilene_cost_network.node[12].core_layer 	repo_load[12] 	87812
scalar abilene_cost_network.node[12].core_layer 	data[12] 	0
scalar abilene_cost_network.node[12].content_store 	p_hit[12] 	0
scalar abilene_cost_network.node[12].content_store 	hits[12] 	0
scalar abilene_cost_network.node[12].content_store 	misses[12] 	87812
scalar abilene_cost_network.node[12].content_store 	decision_yes[12] 	0
scalar abilene_cost_network.node[12].content_store 	decision_no[12] 	87812
scalar abilene_cost_network.node[12].content_store 	decision_ratio[12] 	0
scalar abilene_cost_network.node[13].core_layer 	interests[13] 	92915
scalar abilene_cost_network.node[13].core_layer 	repo_load[13] 	92915
scalar abilene_cost_network.node[13].core_layer 	data[13] 	0
scalar abilene_cost_network.node[13].content_store 	p_hit[13] 	0
scalar abilene_cost_network.node[13].content_store 	hits[13] 	0
scalar abilene_cost_network.node[13].content_store 	misses[13] 	92915
scalar abilene_cost_network.node[13].content_store 	decision_yes[13] 	0
scalar abilene_cost_network.node[13].content_store 	decision_no[13] 	92915
scalar abilene_cost_network.node[13].content_store 	decision_ratio[13] 	0
scalar abilene_cost_network.client[0] 	hdistance[0] 	2.2233711536111
scalar abilene_cost_network.client[0] 	downloads[0] 	179974
scalar abilene_cost_network.client[0] 	avg_time[0] 	0.008917756924
scalar abilene_cost_network.client[0] 	interests_sent[0] 	180010
scalar abilene_cost_network.client[5] 	hdistance[5] 	2.9973083817547
scalar abilene_cost_network.client[5] 	downloads[5] 	180189
scalar abilene_cost_network.client[5] 	avg_time[5] 	0.010739785157
scalar abilene_cost_network.client[5] 	interests_sent[5] 	180206
scalar abilene_cost_network.client[9] 	hdistance[9] 	2.0117964404894
scalar abilene_cost_network.client[9] 	downloads[9] 	179800
scalar abilene_cost_network.client[9] 	avg_time[9] 	0.007579059777
scalar abilene_cost_network.client[9] 	interests_sent[9] 	179824
