version 2
run General-19-20140626-16:45:55-16682
attr D costprobprodcorr0.01
attr F nrr
attr R lru
attr a 1
attr configname General
attr csize 1e3
attr ctlg 1e5
attr datetime 20140626-16:45:55
attr experiment General
attr inifile omnetpp.ini
attr iterationvars "$net=abilene_cost, $rep=7, $priceratiovalue=10, $weights=0.333_0.333_0.334, $lambda=100, $a=1, $ctlg=1e5, $F=nrr, $ttl=1000, $D=costprobprodcorr0.01, $xi=1, $R=lru, $csize=1e3, $pricebits=0, $mytime=1800"
attr iterationvars2 "$net=abilene_cost, $rep=7, $priceratiovalue=10, $weights=0.333_0.333_0.334, $lambda=100, $a=1, $ctlg=1e5, $F=nrr, $ttl=1000, $D=costprobprodcorr0.01, $xi=1, $R=lru, $csize=1e3, $pricebits=0, $mytime=1800, $repetition=0"
attr lambda 100
attr measurement "$net=abilene_cost, $rep=7, $priceratiovalue=10, $weights=0.333_0.333_0.334, $lambda=100, $a=1, $ctlg=1e5, $F=nrr, $ttl=1000, $D=costprobprodcorr0.01, $xi=1, $R=lru, $csize=1e3, $pricebits=0, $mytime=1800"
attr mytime 1800
attr net abilene_cost
attr network "networks.${net=geant_cost, abilene_cost}_network"
attr pricebits 0
attr priceratiovalue 10
attr processid 16682
attr rep 7
attr repetition 0
attr replication #0
attr resultdir results
attr runnumber 19
attr seedset 7
attr ttl 1000
attr weights 0.333_0.333_0.334
attr xi 1

scalar . 	a 	1
scalar . 	csize 	1e3
scalar . 	ctlg 	1e5
scalar . 	lambda 	100
scalar . 	mytime 	1800
scalar . 	pricebits 	0
scalar . 	priceratiovalue 	10
scalar . 	rep 	7
scalar . 	ttl 	1000
scalar . 	xi 	1
scalar abilene_cost_network.content_distribution 	repo-0 	11
scalar abilene_cost_network.content_distribution 	repo-1 	12
scalar abilene_cost_network.content_distribution 	repo-2 	13
scalar abilene_cost_network.content_distribution 	client-0 	5
scalar abilene_cost_network.content_distribution 	client-1 	0
scalar abilene_cost_network.content_distribution 	client-2 	9
scalar abilene_cost_network.content_distribution 	repo-0_card 	33104
scalar abilene_cost_network.content_distribution 	repo-1_card 	33508
scalar abilene_cost_network.content_distribution 	repo-2_card 	33388
scalar abilene_cost_network.statistics 	repo_popularity[0] 	0.34609068621501
scalar abilene_cost_network.statistics 	repo_popularity[1] 	0.29388785961082
scalar abilene_cost_network.statistics 	repo_popularity[2] 	0.36002145417417
scalar abilene_cost_network.statistics 	stabilization_time 	2344.7
scalar abilene_cost_network.node[1].face$o[4].channel 	price[1] 	0
scalar abilene_cost_network.node[1].face$o[4].channel 	represented_price[1] 	0
scalar abilene_cost_network.node[7].face$o[4].channel 	price[7] 	0
scalar abilene_cost_network.node[7].face$o[4].channel 	represented_price[7] 	0
scalar abilene_cost_network.node[10].face$o[4].channel 	price[10] 	0
scalar abilene_cost_network.node[10].face$o[4].channel 	represented_price[10] 	0
scalar abilene_cost_network.node[11].face$o[1].channel 	price[11] 	0
scalar abilene_cost_network.node[11].face$o[1].channel 	represented_price[11] 	0
scalar abilene_cost_network.node[12].face$o[1].channel 	price[12] 	1
scalar abilene_cost_network.node[12].face$o[1].channel 	represented_price[12] 	1
scalar abilene_cost_network.node[13].face$o[1].channel 	price[13] 	10
scalar abilene_cost_network.node[13].face$o[1].channel 	represented_price[13] 	10
scalar abilene_cost_network.statistics 	p_hit 	0.098297495981785
scalar abilene_cost_network.statistics 	interests 	147631.28571429
scalar abilene_cost_network.statistics 	data 	109097.5
scalar abilene_cost_network.statistics 	hdistance 	3.4912639894023
scalar abilene_cost_network.statistics 	avg_time 	0.014598578378
scalar abilene_cost_network.statistics 	downloads 	532786
scalar abilene_cost_network.statistics 	total_cost 	783442
scalar abilene_cost_network.statistics 	total_replicas 	100000
scalar abilene_cost_network.statistics 	inner_hit 	0.38132195665802
scalar abilene_cost_network.statistics 	interests_sent 	539475
scalar abilene_cost_network.node[0].core_layer 	interests[0] 	197557
scalar abilene_cost_network.node[0].core_layer 	data[0] 	164777
scalar abilene_cost_network.node[0].core_layer 	repo_int[0] 	329623
scalar abilene_cost_network.node[0].content_store 	p_hit[0] 	0.15796453681722
scalar abilene_cost_network.node[0].content_store 	hits[0] 	31207
scalar abilene_cost_network.node[0].content_store 	misses[0] 	166350
scalar abilene_cost_network.node[0].content_store 	decision_yes[0] 	739
scalar abilene_cost_network.node[0].content_store 	decision_no[0] 	164038
scalar abilene_cost_network.node[0].content_store 	decision_ratio[0] 	0.0044848492204616
scalar abilene_cost_network.node[0].content_store 	correction_factor[0] 	0.0027225701061802
scalar abilene_cost_network.node[0].content_store 	xi[0] 	1
scalar abilene_cost_network.node[1].core_layer 	interests[1] 	226556
scalar abilene_cost_network.node[1].core_layer 	data[1] 	193759
scalar abilene_cost_network.node[1].content_store 	p_hit[1] 	0.14475008386448
scalar abilene_cost_network.node[1].content_store 	hits[1] 	32794
scalar abilene_cost_network.node[1].content_store 	misses[1] 	193762
scalar abilene_cost_network.node[1].content_store 	decision_yes[1] 	1992
scalar abilene_cost_network.node[1].content_store 	decision_no[1] 	191767
scalar abilene_cost_network.node[1].content_store 	decision_ratio[1] 	0.010280812762246
scalar abilene_cost_network.node[1].content_store 	correction_factor[1] 	0.0027225701061802
scalar abilene_cost_network.node[1].content_store 	xi[1] 	1
scalar abilene_cost_network.node[2].core_layer 	interests[2] 	179431
scalar abilene_cost_network.node[2].core_layer 	data[2] 	146424
scalar abilene_cost_network.node[2].content_store 	p_hit[2] 	0.18395929354459
scalar abilene_cost_network.node[2].content_store 	hits[2] 	33008
scalar abilene_cost_network.node[2].content_store 	misses[2] 	146423
scalar abilene_cost_network.node[2].content_store 	decision_yes[2] 	716
scalar abilene_cost_network.node[2].content_store 	decision_no[2] 	145708
scalar abilene_cost_network.node[2].content_store 	decision_ratio[2] 	0.0048899087581271
scalar abilene_cost_network.node[2].content_store 	correction_factor[2] 	0.0027225701061802
scalar abilene_cost_network.node[2].content_store 	xi[2] 	1
scalar abilene_cost_network.node[3].core_layer 	interests[3] 	155402
scalar abilene_cost_network.node[3].core_layer 	data[3] 	145179
scalar abilene_cost_network.node[3].content_store 	p_hit[3] 	0.065797093988494
scalar abilene_cost_network.node[3].content_store 	hits[3] 	10225
scalar abilene_cost_network.node[3].content_store 	misses[3] 	145177
scalar abilene_cost_network.node[3].content_store 	decision_yes[3] 	718
scalar abilene_cost_network.node[3].content_store 	decision_no[3] 	144461
scalar abilene_cost_network.node[3].content_store 	decision_ratio[3] 	0.0049456188567217
scalar abilene_cost_network.node[3].content_store 	correction_factor[3] 	0.0027225701061802
scalar abilene_cost_network.node[3].content_store 	xi[3] 	1
scalar abilene_cost_network.node[4].core_layer 	interests[4] 	119056
scalar abilene_cost_network.node[4].core_layer 	data[4] 	114005
scalar abilene_cost_network.node[4].content_store 	p_hit[4] 	0.04244221206827
scalar abilene_cost_network.node[4].content_store 	hits[4] 	5053
scalar abilene_cost_network.node[4].content_store 	misses[4] 	114003
scalar abilene_cost_network.node[4].content_store 	decision_yes[4] 	593
scalar abilene_cost_network.node[4].content_store 	decision_no[4] 	113412
scalar abilene_cost_network.node[4].content_store 	decision_ratio[4] 	0.0052015262488487
scalar abilene_cost_network.node[4].content_store 	correction_factor[4] 	0.0027225701061802
scalar abilene_cost_network.node[4].content_store 	xi[4] 	1
scalar abilene_cost_network.node[5].core_layer 	interests[5] 	182701
scalar abilene_cost_network.node[5].core_layer 	data[5] 	161081
scalar abilene_cost_network.node[5].content_store 	p_hit[5] 	0.098187749382871
scalar abilene_cost_network.node[5].content_store 	hits[5] 	17939
scalar abilene_cost_network.node[5].content_store 	misses[5] 	164762
scalar abilene_cost_network.node[5].content_store 	decision_yes[5] 	739
scalar abilene_cost_network.node[5].content_store 	decision_no[5] 	160342
scalar abilene_cost_network.node[5].content_store 	decision_ratio[5] 	0.0045877539871245
scalar abilene_cost_network.node[5].content_store 	correction_factor[5] 	0.0027225701061802
scalar abilene_cost_network.node[5].content_store 	xi[5] 	1
scalar abilene_cost_network.node[6].core_layer 	interests[6] 	49207
scalar abilene_cost_network.node[6].core_layer 	data[6] 	44199
scalar abilene_cost_network.node[6].content_store 	p_hit[6] 	0.10177413782592
scalar abilene_cost_network.node[6].content_store 	hits[6] 	5008
scalar abilene_cost_network.node[6].content_store 	misses[6] 	44199
scalar abilene_cost_network.node[6].content_store 	decision_yes[6] 	76
scalar abilene_cost_network.node[6].content_store 	decision_no[6] 	44123
scalar abilene_cost_network.node[6].content_store 	decision_ratio[6] 	0.0017194959161972
scalar abilene_cost_network.node[6].content_store 	correction_factor[6] 	0.0027225701061802
scalar abilene_cost_network.node[6].content_store 	xi[6] 	1
scalar abilene_cost_network.node[7].core_layer 	interests[7] 	110645
scalar abilene_cost_network.node[7].core_layer 	data[7] 	91859
scalar abilene_cost_network.node[7].content_store 	p_hit[7] 	0.16978625333273
scalar abilene_cost_network.node[7].content_store 	hits[7] 	18786
scalar abilene_cost_network.node[7].content_store 	misses[7] 	91859
scalar abilene_cost_network.node[7].content_store 	decision_yes[7] 	213
scalar abilene_cost_network.node[7].content_store 	decision_no[7] 	91646
scalar abilene_cost_network.node[7].content_store 	decision_ratio[7] 	0.0023187711601476
scalar abilene_cost_network.node[7].content_store 	correction_factor[7] 	0.0027225701061802
scalar abilene_cost_network.node[7].content_store 	xi[7] 	1
scalar abilene_cost_network.node[8].core_layer 	interests[8] 	71212
scalar abilene_cost_network.node[8].core_layer 	data[8] 	55855
scalar abilene_cost_network.node[8].content_store 	p_hit[8] 	0.21566589900579
scalar abilene_cost_network.node[8].content_store 	hits[8] 	15358
scalar abilene_cost_network.node[8].content_store 	misses[8] 	55854
scalar abilene_cost_network.node[8].content_store 	decision_yes[8] 	63
scalar abilene_cost_network.node[8].content_store 	decision_no[8] 	55792
scalar abilene_cost_network.node[8].content_store 	decision_ratio[8] 	0.0011279205084594
scalar abilene_cost_network.node[8].content_store 	correction_factor[8] 	0.0027225701061802
scalar abilene_cost_network.node[8].content_store 	xi[8] 	1
scalar abilene_cost_network.node[9].core_layer 	interests[9] 	190335
scalar abilene_cost_network.node[9].core_layer 	data[9] 	172810
scalar abilene_cost_network.node[9].content_store 	p_hit[9] 	0.084535161688602
scalar abilene_cost_network.node[9].content_store 	hits[9] 	16090
scalar abilene_cost_network.node[9].content_store 	misses[9] 	174245
scalar abilene_cost_network.node[9].content_store 	decision_yes[9] 	649
scalar abilene_cost_network.node[9].content_store 	decision_no[9] 	172161
scalar abilene_cost_network.node[9].content_store 	decision_ratio[9] 	0.0037555697008275
scalar abilene_cost_network.node[9].content_store 	correction_factor[9] 	0.0027225701061802
scalar abilene_cost_network.node[9].content_store 	xi[9] 	1
scalar abilene_cost_network.node[10].core_layer 	interests[10] 	255113
scalar abilene_cost_network.node[10].core_layer 	data[10] 	237417
scalar abilene_cost_network.node[10].content_store 	p_hit[10] 	0.069369259896595
scalar abilene_cost_network.node[10].content_store 	hits[10] 	17697
scalar abilene_cost_network.node[10].content_store 	misses[10] 	237416
scalar abilene_cost_network.node[10].content_store 	decision_yes[10] 	622
scalar abilene_cost_network.node[10].content_store 	decision_no[10] 	236795
scalar abilene_cost_network.node[10].content_store 	decision_ratio[10] 	0.0026198629415754
scalar abilene_cost_network.node[10].content_store 	correction_factor[10] 	0.0027225701061802
scalar abilene_cost_network.node[10].content_store 	xi[10] 	1
scalar abilene_cost_network.node[11].core_layer 	interests[11] 	182472
scalar abilene_cost_network.node[11].core_layer 	repo_load[11] 	182472
scalar abilene_cost_network.node[11].core_layer 	data[11] 	0
scalar abilene_cost_network.node[11].content_store 	p_hit[11] 	0
scalar abilene_cost_network.node[11].content_store 	hits[11] 	0
scalar abilene_cost_network.node[11].content_store 	misses[11] 	182472
scalar abilene_cost_network.node[11].content_store 	decision_yes[11] 	0
scalar abilene_cost_network.node[11].content_store 	decision_no[11] 	182472
scalar abilene_cost_network.node[11].content_store 	decision_ratio[11] 	0
scalar abilene_cost_network.node[12].core_layer 	interests[12] 	76452
scalar abilene_cost_network.node[12].core_layer 	repo_load[12] 	76452
scalar abilene_cost_network.node[12].core_layer 	data[12] 	0
scalar abilene_cost_network.node[12].content_store 	p_hit[12] 	0
scalar abilene_cost_network.node[12].content_store 	hits[12] 	0
scalar abilene_cost_network.node[12].content_store 	misses[12] 	76452
scalar abilene_cost_network.node[12].content_store 	decision_yes[12] 	0
scalar abilene_cost_network.node[12].content_store 	decision_no[12] 	76452
scalar abilene_cost_network.node[12].content_store 	decision_ratio[12] 	0
scalar abilene_cost_network.node[13].core_layer 	interests[13] 	70699
scalar abilene_cost_network.node[13].core_layer 	repo_load[13] 	70699
scalar abilene_cost_network.node[13].core_layer 	data[13] 	0
scalar abilene_cost_network.node[13].content_store 	p_hit[13] 	0
scalar abilene_cost_network.node[13].content_store 	hits[13] 	0
scalar abilene_cost_network.node[13].content_store 	misses[13] 	70699
scalar abilene_cost_network.node[13].content_store 	decision_yes[13] 	0
scalar abilene_cost_network.node[13].content_store 	decision_no[13] 	70699
scalar abilene_cost_network.node[13].content_store 	decision_ratio[13] 	0
scalar abilene_cost_network.client[0] 	hdistance[0] 	2.9574413321546
scalar abilene_cost_network.client[0] 	downloads[0] 	178718
scalar abilene_cost_network.client[0] 	avg_time[0] 	0.012810343703
scalar abilene_cost_network.client[0] 	interests_sent[0] 	180291
scalar abilene_cost_network.client[5] 	hdistance[5] 	4.690196591355
scalar abilene_cost_network.client[5] 	downloads[5] 	175847
scalar abilene_cost_network.client[5] 	avg_time[5] 	0.019272839122
scalar abilene_cost_network.client[5] 	interests_sent[5] 	179528
scalar abilene_cost_network.client[9] 	hdistance[9] 	2.8261540446974
scalar abilene_cost_network.client[9] 	downloads[9] 	178221
scalar abilene_cost_network.client[9] 	avg_time[9] 	0.011712552309
scalar abilene_cost_network.client[9] 	interests_sent[9] 	179656
