version 2
run General-27-20140626-16:59:07-16785
attr D costprobprodcorr0.01
attr F nrr
attr R lru
attr a 1
attr configname General
attr csize 1e3
attr ctlg 1e5
attr datetime 20140626-16:59:07
attr experiment General
attr inifile omnetpp.ini
attr iterationvars "$net=abilene_cost, $rep=8, $priceratiovalue=10, $weights=0.333_0.333_0.334, $lambda=100, $a=1, $ctlg=1e5, $F=nrr, $ttl=1000, $D=costprobprodcorr0.01, $xi=1, $R=lru, $csize=1e3, $pricebits=0, $mytime=1800"
attr iterationvars2 "$net=abilene_cost, $rep=8, $priceratiovalue=10, $weights=0.333_0.333_0.334, $lambda=100, $a=1, $ctlg=1e5, $F=nrr, $ttl=1000, $D=costprobprodcorr0.01, $xi=1, $R=lru, $csize=1e3, $pricebits=0, $mytime=1800, $repetition=0"
attr lambda 100
attr measurement "$net=abilene_cost, $rep=8, $priceratiovalue=10, $weights=0.333_0.333_0.334, $lambda=100, $a=1, $ctlg=1e5, $F=nrr, $ttl=1000, $D=costprobprodcorr0.01, $xi=1, $R=lru, $csize=1e3, $pricebits=0, $mytime=1800"
attr mytime 1800
attr net abilene_cost
attr network "networks.${net=geant_cost, abilene_cost}_network"
attr pricebits 0
attr priceratiovalue 10
attr processid 16785
attr rep 8
attr repetition 0
attr replication #0
attr resultdir results
attr runnumber 27
attr seedset 8
attr ttl 1000
attr weights 0.333_0.333_0.334
attr xi 1

scalar . 	a 	1
scalar . 	csize 	1e3
scalar . 	ctlg 	1e5
scalar . 	lambda 	100
scalar . 	mytime 	1800
scalar . 	pricebits 	0
scalar . 	priceratiovalue 	10
scalar . 	rep 	8
scalar . 	ttl 	1000
scalar . 	xi 	1
scalar abilene_cost_network.content_distribution 	repo-0 	11
scalar abilene_cost_network.content_distribution 	repo-1 	12
scalar abilene_cost_network.content_distribution 	repo-2 	13
scalar abilene_cost_network.content_distribution 	client-0 	5
scalar abilene_cost_network.content_distribution 	client-1 	0
scalar abilene_cost_network.content_distribution 	client-2 	9
scalar abilene_cost_network.content_distribution 	repo-0_card 	33481
scalar abilene_cost_network.content_distribution 	repo-1_card 	33257
scalar abilene_cost_network.content_distribution 	repo-2_card 	33262
scalar abilene_cost_network.statistics 	repo_popularity[0] 	0.31048403425595
scalar abilene_cost_network.statistics 	repo_popularity[1] 	0.33358081359224
scalar abilene_cost_network.statistics 	repo_popularity[2] 	0.35593515215181
scalar abilene_cost_network.statistics 	stabilization_time 	2226.6
scalar abilene_cost_network.node[1].face$o[4].channel 	price[1] 	0
scalar abilene_cost_network.node[1].face$o[4].channel 	represented_price[1] 	0
scalar abilene_cost_network.node[7].face$o[4].channel 	price[7] 	0
scalar abilene_cost_network.node[7].face$o[4].channel 	represented_price[7] 	0
scalar abilene_cost_network.node[10].face$o[4].channel 	price[10] 	0
scalar abilene_cost_network.node[10].face$o[4].channel 	represented_price[10] 	0
scalar abilene_cost_network.node[11].face$o[1].channel 	price[11] 	0
scalar abilene_cost_network.node[11].face$o[1].channel 	represented_price[11] 	0
scalar abilene_cost_network.node[12].face$o[1].channel 	price[12] 	1
scalar abilene_cost_network.node[12].face$o[1].channel 	represented_price[12] 	1
scalar abilene_cost_network.node[13].face$o[1].channel 	price[13] 	10
scalar abilene_cost_network.node[13].face$o[1].channel 	represented_price[13] 	10
scalar abilene_cost_network.statistics 	p_hit 	0.10349496243997
scalar abilene_cost_network.statistics 	interests 	151043.92857143
scalar abilene_cost_network.statistics 	data 	112381.21428571
scalar abilene_cost_network.statistics 	hdistance 	3.5454037141633
scalar abilene_cost_network.statistics 	avg_time 	0.015361483366
scalar abilene_cost_network.statistics 	downloads 	533579
scalar abilene_cost_network.statistics 	total_cost 	785594
scalar abilene_cost_network.statistics 	total_replicas 	100000
scalar abilene_cost_network.statistics 	inner_hit 	0.4101829344858
scalar abilene_cost_network.statistics 	interests_sent 	541278
scalar abilene_cost_network.node[0].core_layer 	interests[0] 	200855
scalar abilene_cost_network.node[0].core_layer 	data[0] 	165928
scalar abilene_cost_network.node[0].core_layer 	repo_int[0] 	314714
scalar abilene_cost_network.node[0].content_store 	p_hit[0] 	0.16389435164671
scalar abilene_cost_network.node[0].content_store 	hits[0] 	32919
scalar abilene_cost_network.node[0].content_store 	misses[0] 	167936
scalar abilene_cost_network.node[0].content_store 	decision_yes[0] 	733
scalar abilene_cost_network.node[0].content_store 	decision_no[0] 	165195
scalar abilene_cost_network.node[0].content_store 	decision_ratio[0] 	0.0044175787088376
scalar abilene_cost_network.node[0].content_store 	correction_factor[0] 	0.0027225701061802
scalar abilene_cost_network.node[0].content_store 	xi[0] 	1
scalar abilene_cost_network.node[1].core_layer 	interests[1] 	212804
scalar abilene_cost_network.node[1].core_layer 	data[1] 	198365
scalar abilene_cost_network.node[1].content_store 	p_hit[1] 	0.067846469051334
scalar abilene_cost_network.node[1].content_store 	hits[1] 	14438
scalar abilene_cost_network.node[1].content_store 	misses[1] 	198366
scalar abilene_cost_network.node[1].content_store 	decision_yes[1] 	1918
scalar abilene_cost_network.node[1].content_store 	decision_no[1] 	196447
scalar abilene_cost_network.node[1].content_store 	decision_ratio[1] 	0.009669044438283
scalar abilene_cost_network.node[1].content_store 	correction_factor[1] 	0.0027225701061802
scalar abilene_cost_network.node[1].content_store 	xi[1] 	1
scalar abilene_cost_network.node[2].core_layer 	interests[2] 	170413
scalar abilene_cost_network.node[2].core_layer 	data[2] 	154895
scalar abilene_cost_network.node[2].content_store 	p_hit[2] 	0.091025919384085
scalar abilene_cost_network.node[2].content_store 	hits[2] 	15512
scalar abilene_cost_network.node[2].content_store 	misses[2] 	154901
scalar abilene_cost_network.node[2].content_store 	decision_yes[2] 	717
scalar abilene_cost_network.node[2].content_store 	decision_no[2] 	154178
scalar abilene_cost_network.node[2].content_store 	decision_ratio[2] 	0.0046289421866426
scalar abilene_cost_network.node[2].content_store 	correction_factor[2] 	0.0027225701061802
scalar abilene_cost_network.node[2].content_store 	xi[2] 	1
scalar abilene_cost_network.node[3].core_layer 	interests[3] 	157992
scalar abilene_cost_network.node[3].core_layer 	data[3] 	144924
scalar abilene_cost_network.node[3].content_store 	p_hit[3] 	0.082725707630766
scalar abilene_cost_network.node[3].content_store 	hits[3] 	13070
scalar abilene_cost_network.node[3].content_store 	misses[3] 	144922
scalar abilene_cost_network.node[3].content_store 	decision_yes[3] 	690
scalar abilene_cost_network.node[3].content_store 	decision_no[3] 	144234
scalar abilene_cost_network.node[3].content_store 	decision_ratio[3] 	0.0047611161712346
scalar abilene_cost_network.node[3].content_store 	correction_factor[3] 	0.0027225701061802
scalar abilene_cost_network.node[3].content_store 	xi[3] 	1
scalar abilene_cost_network.node[4].core_layer 	interests[4] 	111655
scalar abilene_cost_network.node[4].core_layer 	data[4] 	108482
scalar abilene_cost_network.node[4].content_store 	p_hit[4] 	0.028426850566477
scalar abilene_cost_network.node[4].content_store 	hits[4] 	3174
scalar abilene_cost_network.node[4].content_store 	misses[4] 	108481
scalar abilene_cost_network.node[4].content_store 	decision_yes[4] 	596
scalar abilene_cost_network.node[4].content_store 	decision_no[4] 	107886
scalar abilene_cost_network.node[4].content_store 	decision_ratio[4] 	0.0054939990044431
scalar abilene_cost_network.node[4].content_store 	correction_factor[4] 	0.0027225701061802
scalar abilene_cost_network.node[4].content_store 	xi[4] 	1
scalar abilene_cost_network.node[5].core_layer 	interests[5] 	188604
scalar abilene_cost_network.node[5].core_layer 	data[5] 	171265
scalar abilene_cost_network.node[5].content_store 	p_hit[5] 	0.0662128056669
scalar abilene_cost_network.node[5].content_store 	hits[5] 	12488
scalar abilene_cost_network.node[5].content_store 	misses[5] 	176116
scalar abilene_cost_network.node[5].content_store 	decision_yes[5] 	716
scalar abilene_cost_network.node[5].content_store 	decision_no[5] 	170549
scalar abilene_cost_network.node[5].content_store 	decision_ratio[5] 	0.004180655708989
scalar abilene_cost_network.node[5].content_store 	correction_factor[5] 	0.0027225701061802
scalar abilene_cost_network.node[5].content_store 	xi[5] 	1
scalar abilene_cost_network.node[6].core_layer 	interests[6] 	74186
scalar abilene_cost_network.node[6].core_layer 	data[6] 	64896
scalar abilene_cost_network.node[6].content_store 	p_hit[6] 	0.12522578384062
scalar abilene_cost_network.node[6].content_store 	hits[6] 	9290
scalar abilene_cost_network.node[6].content_store 	misses[6] 	64896
scalar abilene_cost_network.node[6].content_store 	decision_yes[6] 	69
scalar abilene_cost_network.node[6].content_store 	decision_no[6] 	64827
scalar abilene_cost_network.node[6].content_store 	decision_ratio[6] 	0.0010632396449704
scalar abilene_cost_network.node[6].content_store 	correction_factor[6] 	0.0027225701061802
scalar abilene_cost_network.node[6].content_store 	xi[6] 	1
scalar abilene_cost_network.node[7].core_layer 	interests[7] 	144911
scalar abilene_cost_network.node[7].core_layer 	data[7] 	108736
scalar abilene_cost_network.node[7].content_store 	p_hit[7] 	0.24957387637929
scalar abilene_cost_network.node[7].content_store 	hits[7] 	36166
scalar abilene_cost_network.node[7].content_store 	misses[7] 	108745
scalar abilene_cost_network.node[7].content_store 	decision_yes[7] 	186
scalar abilene_cost_network.node[7].content_store 	decision_no[7] 	108550
scalar abilene_cost_network.node[7].content_store 	decision_ratio[7] 	0.0017105650382578
scalar abilene_cost_network.node[7].content_store 	correction_factor[7] 	0.0027225701061802
scalar abilene_cost_network.node[7].content_store 	xi[7] 	1
scalar abilene_cost_network.node[8].core_layer 	interests[8] 	90035
scalar abilene_cost_network.node[8].core_layer 	data[8] 	70511
scalar abilene_cost_network.node[8].content_store 	p_hit[8] 	0.21683789637363
scalar abilene_cost_network.node[8].content_store 	hits[8] 	19523
scalar abilene_cost_network.node[8].content_store 	misses[8] 	70512
scalar abilene_cost_network.node[8].content_store 	decision_yes[8] 	77
scalar abilene_cost_network.node[8].content_store 	decision_no[8] 	70434
scalar abilene_cost_network.node[8].content_store 	decision_ratio[8] 	0.0010920281941825
scalar abilene_cost_network.node[8].content_store 	correction_factor[8] 	0.0027225701061802
scalar abilene_cost_network.node[8].content_store 	xi[8] 	1
scalar abilene_cost_network.node[9].core_layer 	interests[9] 	213753
scalar abilene_cost_network.node[9].core_layer 	data[9] 	160345
scalar abilene_cost_network.node[9].content_store 	p_hit[9] 	0.24592871211164
scalar abilene_cost_network.node[9].content_store 	hits[9] 	52568
scalar abilene_cost_network.node[9].content_store 	misses[9] 	161185
scalar abilene_cost_network.node[9].content_store 	decision_yes[9] 	693
scalar abilene_cost_network.node[9].content_store 	decision_no[9] 	159652
scalar abilene_cost_network.node[9].content_store 	decision_ratio[9] 	0.0043219308366335
scalar abilene_cost_network.node[9].content_store 	correction_factor[9] 	0.0027225701061802
scalar abilene_cost_network.node[9].content_store 	xi[9] 	1
scalar abilene_cost_network.node[10].core_layer 	interests[10] 	234693
scalar abilene_cost_network.node[10].core_layer 	data[10] 	224990
scalar abilene_cost_network.node[10].content_store 	p_hit[10] 	0.041347632865062
scalar abilene_cost_network.node[10].content_store 	hits[10] 	9704
scalar abilene_cost_network.node[10].content_store 	misses[10] 	224989
scalar abilene_cost_network.node[10].content_store 	decision_yes[10] 	631
scalar abilene_cost_network.node[10].content_store 	decision_no[10] 	224359
scalar abilene_cost_network.node[10].content_store 	decision_ratio[10] 	0.0028045690919596
scalar abilene_cost_network.node[10].content_store 	correction_factor[10] 	0.0027225701061802
scalar abilene_cost_network.node[10].content_store 	xi[10] 	1
scalar abilene_cost_network.node[11].core_layer 	interests[11] 	167499
scalar abilene_cost_network.node[11].core_layer 	repo_load[11] 	167499
scalar abilene_cost_network.node[11].core_layer 	data[11] 	0
scalar abilene_cost_network.node[11].content_store 	p_hit[11] 	0
scalar abilene_cost_network.node[11].content_store 	hits[11] 	0
scalar abilene_cost_network.node[11].content_store 	misses[11] 	167499
scalar abilene_cost_network.node[11].content_store 	decision_yes[11] 	0
scalar abilene_cost_network.node[11].content_store 	decision_no[11] 	167499
scalar abilene_cost_network.node[11].content_store 	decision_ratio[11] 	0
scalar abilene_cost_network.node[12].core_layer 	interests[12] 	76284
scalar abilene_cost_network.node[12].core_layer 	repo_load[12] 	76284
scalar abilene_cost_network.node[12].core_layer 	data[12] 	0
scalar abilene_cost_network.node[12].content_store 	p_hit[12] 	0
scalar abilene_cost_network.node[12].content_store 	hits[12] 	0
scalar abilene_cost_network.node[12].content_store 	misses[12] 	76284
scalar abilene_cost_network.node[12].content_store 	decision_yes[12] 	0
scalar abilene_cost_network.node[12].content_store 	decision_no[12] 	76284
scalar abilene_cost_network.node[12].content_store 	decision_ratio[12] 	0
scalar abilene_cost_network.node[13].core_layer 	interests[13] 	70931
scalar abilene_cost_network.node[13].core_layer 	repo_load[13] 	70931
scalar abilene_cost_network.node[13].core_layer 	data[13] 	0
scalar abilene_cost_network.node[13].content_store 	p_hit[13] 	0
scalar abilene_cost_network.node[13].content_store 	hits[13] 	0
scalar abilene_cost_network.node[13].content_store 	misses[13] 	70931
scalar abilene_cost_network.node[13].content_store 	decision_yes[13] 	0
scalar abilene_cost_network.node[13].content_store 	decision_no[13] 	70931
scalar abilene_cost_network.node[13].content_store 	decision_ratio[13] 	0
scalar abilene_cost_network.client[0] 	hdistance[0] 	3.1335535206608
scalar abilene_cost_network.client[0] 	downloads[0] 	178333
scalar abilene_cost_network.client[0] 	avg_time[0] 	0.013896664853
scalar abilene_cost_network.client[0] 	interests_sent[0] 	180341
scalar abilene_cost_network.client[5] 	hdistance[5] 	4.8159579605171
scalar abilene_cost_network.client[5] 	downloads[5] 	176025
scalar abilene_cost_network.client[5] 	avg_time[5] 	0.02056972041
scalar abilene_cost_network.client[5] 	interests_sent[5] 	180876
scalar abilene_cost_network.client[9] 	hdistance[9] 	2.686699661312
scalar abilene_cost_network.client[9] 	downloads[9] 	179221
scalar abilene_cost_network.client[9] 	avg_time[9] 	0.011618064835
scalar abilene_cost_network.client[9] 	interests_sent[9] 	180061
