version 2
run General-16-20140625-18:17:57-12197
attr D costprobprodcorr0.01
attr F nrr
attr R lru
attr a 1
attr configname General
attr csize 1e3
attr ctlg 1e5
attr datetime 20140625-18:17:57
attr experiment General
attr inifile omnetpp.ini
attr iterationvars "$net=abilene_cost, $rep=1, $priceratiovalue=10, $weights=0.333_0.333_0.334, $lambda=100, $a=1, $ctlg=1e5, $F=nrr, $ttl=1000, $D=costprobprodcorr0.01, $xi=1, $R=lru, $csize=1e3, $pricebits=0, $mytime=1800"
attr iterationvars2 "$net=abilene_cost, $rep=1, $priceratiovalue=10, $weights=0.333_0.333_0.334, $lambda=100, $a=1, $ctlg=1e5, $F=nrr, $ttl=1000, $D=costprobprodcorr0.01, $xi=1, $R=lru, $csize=1e3, $pricebits=0, $mytime=1800, $repetition=0"
attr lambda 100
attr measurement "$net=abilene_cost, $rep=1, $priceratiovalue=10, $weights=0.333_0.333_0.334, $lambda=100, $a=1, $ctlg=1e5, $F=nrr, $ttl=1000, $D=costprobprodcorr0.01, $xi=1, $R=lru, $csize=1e3, $pricebits=0, $mytime=1800"
attr mytime 1800
attr net abilene_cost
attr network "networks.${net=geant_cost, abilene_cost}_network"
attr pricebits 0
attr priceratiovalue 10
attr processid 12197
attr rep 1
attr repetition 0
attr replication #0
attr resultdir results
attr runnumber 16
attr seedset 1
attr ttl 1000
attr weights 0.333_0.333_0.334
attr xi 1

scalar . 	a 	1
scalar . 	csize 	1e3
scalar . 	ctlg 	1e5
scalar . 	lambda 	100
scalar . 	mytime 	1800
scalar . 	pricebits 	0
scalar . 	priceratiovalue 	10
scalar . 	rep 	1
scalar . 	ttl 	1000
scalar . 	xi 	1
scalar abilene_cost_network.content_distribution 	repo-0 	11
scalar abilene_cost_network.content_distribution 	repo-1 	12
scalar abilene_cost_network.content_distribution 	repo-2 	13
scalar abilene_cost_network.content_distribution 	client-0 	5
scalar abilene_cost_network.content_distribution 	client-1 	0
scalar abilene_cost_network.content_distribution 	client-2 	9
scalar abilene_cost_network.content_distribution 	repo-0_card 	33396
scalar abilene_cost_network.content_distribution 	repo-1_card 	33039
scalar abilene_cost_network.content_distribution 	repo-2_card 	33565
scalar abilene_cost_network.statistics 	repo_popularity[0] 	0.28686251265602
scalar abilene_cost_network.statistics 	repo_popularity[1] 	0.2886063426465
scalar abilene_cost_network.statistics 	repo_popularity[2] 	0.42453114469748
scalar abilene_cost_network.statistics 	stabilization_time 	2405.8
scalar abilene_cost_network.node[1].face$o[4].channel 	price[1] 	0
scalar abilene_cost_network.node[1].face$o[4].channel 	represented_price[1] 	0
scalar abilene_cost_network.node[7].face$o[4].channel 	price[7] 	0
scalar abilene_cost_network.node[7].face$o[4].channel 	represented_price[7] 	0
scalar abilene_cost_network.node[10].face$o[4].channel 	price[10] 	0
scalar abilene_cost_network.node[10].face$o[4].channel 	represented_price[10] 	0
scalar abilene_cost_network.node[11].face$o[1].channel 	price[11] 	0
scalar abilene_cost_network.node[11].face$o[1].channel 	represented_price[11] 	0
scalar abilene_cost_network.node[12].face$o[1].channel 	price[12] 	1
scalar abilene_cost_network.node[12].face$o[1].channel 	represented_price[12] 	1
scalar abilene_cost_network.node[13].face$o[1].channel 	price[13] 	10
scalar abilene_cost_network.node[13].face$o[1].channel 	represented_price[13] 	10
scalar abilene_cost_network.statistics 	p_hit 	0.10886357499854
scalar abilene_cost_network.statistics 	interests 	151319.14285714
scalar abilene_cost_network.statistics 	data 	112748.28571429
scalar abilene_cost_network.statistics 	hdistance 	3.5401485595521
scalar abilene_cost_network.statistics 	avg_time 	0.015736328708
scalar abilene_cost_network.statistics 	downloads 	530633
scalar abilene_cost_network.statistics 	total_cost 	784584
scalar abilene_cost_network.statistics 	total_replicas 	100000
scalar abilene_cost_network.statistics 	inner_hit 	0.43622616761491
scalar abilene_cost_network.statistics 	interests_sent 	539997
scalar abilene_cost_network.node[0].core_layer 	interests[0] 	195600
scalar abilene_cost_network.node[0].core_layer 	data[0] 	168075
scalar abilene_cost_network.node[0].core_layer 	repo_int[0] 	299157
scalar abilene_cost_network.node[0].content_store 	p_hit[0] 	0.12437627811861
scalar abilene_cost_network.node[0].content_store 	hits[0] 	24328
scalar abilene_cost_network.node[0].content_store 	misses[0] 	171272
scalar abilene_cost_network.node[0].content_store 	decision_yes[0] 	798
scalar abilene_cost_network.node[0].content_store 	decision_no[0] 	167277
scalar abilene_cost_network.node[0].content_store 	decision_ratio[0] 	0.004747880410531
scalar abilene_cost_network.node[0].content_store 	correction_factor[0] 	0.0027225701061802
scalar abilene_cost_network.node[0].content_store 	xi[0] 	1
scalar abilene_cost_network.node[1].core_layer 	interests[1] 	234803
scalar abilene_cost_network.node[1].core_layer 	data[1] 	206400
scalar abilene_cost_network.node[1].content_store 	p_hit[1] 	0.12097375246483
scalar abilene_cost_network.node[1].content_store 	hits[1] 	28405
scalar abilene_cost_network.node[1].content_store 	misses[1] 	206398
scalar abilene_cost_network.node[1].content_store 	decision_yes[1] 	1931
scalar abilene_cost_network.node[1].content_store 	decision_no[1] 	204469
scalar abilene_cost_network.node[1].content_store 	decision_ratio[1] 	0.0093556201550388
scalar abilene_cost_network.node[1].content_store 	correction_factor[1] 	0.0027225701061802
scalar abilene_cost_network.node[1].content_store 	xi[1] 	1
scalar abilene_cost_network.node[2].core_layer 	interests[2] 	196336
scalar abilene_cost_network.node[2].core_layer 	data[2] 	179781
scalar abilene_cost_network.node[2].content_store 	p_hit[2] 	0.080051544291419
scalar abilene_cost_network.node[2].content_store 	hits[2] 	15717
scalar abilene_cost_network.node[2].content_store 	misses[2] 	180619
scalar abilene_cost_network.node[2].content_store 	decision_yes[2] 	719
scalar abilene_cost_network.node[2].content_store 	decision_no[2] 	179062
scalar abilene_cost_network.node[2].content_store 	decision_ratio[2] 	0.003999310271942
scalar abilene_cost_network.node[2].content_store 	correction_factor[2] 	0.0027225701061802
scalar abilene_cost_network.node[2].content_store 	xi[2] 	1
scalar abilene_cost_network.node[3].core_layer 	interests[3] 	199384
scalar abilene_cost_network.node[3].core_layer 	data[3] 	146168
scalar abilene_cost_network.node[3].content_store 	p_hit[3] 	0.26690707378726
scalar abilene_cost_network.node[3].content_store 	hits[3] 	53217
scalar abilene_cost_network.node[3].content_store 	misses[3] 	146167
scalar abilene_cost_network.node[3].content_store 	decision_yes[3] 	689
scalar abilene_cost_network.node[3].content_store 	decision_no[3] 	145479
scalar abilene_cost_network.node[3].content_store 	decision_ratio[3] 	0.0047137540364512
scalar abilene_cost_network.node[3].content_store 	correction_factor[3] 	0.0027225701061802
scalar abilene_cost_network.node[3].content_store 	xi[3] 	1
scalar abilene_cost_network.node[4].core_layer 	interests[4] 	127185
scalar abilene_cost_network.node[4].core_layer 	data[4] 	124349
scalar abilene_cost_network.node[4].content_store 	p_hit[4] 	0.022298226992177
scalar abilene_cost_network.node[4].content_store 	hits[4] 	2836
scalar abilene_cost_network.node[4].content_store 	misses[4] 	124349
scalar abilene_cost_network.node[4].content_store 	decision_yes[4] 	626
scalar abilene_cost_network.node[4].content_store 	decision_no[4] 	123723
scalar abilene_cost_network.node[4].content_store 	decision_ratio[4] 	0.0050342182084295
scalar abilene_cost_network.node[4].content_store 	correction_factor[4] 	0.0027225701061802
scalar abilene_cost_network.node[4].content_store 	xi[4] 	1
scalar abilene_cost_network.node[5].core_layer 	interests[5] 	183686
scalar abilene_cost_network.node[5].core_layer 	data[5] 	173159
scalar abilene_cost_network.node[5].content_store 	p_hit[5] 	0.04242566118267
scalar abilene_cost_network.node[5].content_store 	hits[5] 	7793
scalar abilene_cost_network.node[5].content_store 	misses[5] 	175893
scalar abilene_cost_network.node[5].content_store 	decision_yes[5] 	701
scalar abilene_cost_network.node[5].content_store 	decision_no[5] 	172458
scalar abilene_cost_network.node[5].content_store 	decision_ratio[5] 	0.0040483024272489
scalar abilene_cost_network.node[5].content_store 	correction_factor[5] 	0.0027225701061802
scalar abilene_cost_network.node[5].content_store 	xi[5] 	1
scalar abilene_cost_network.node[6].core_layer 	interests[6] 	57386
scalar abilene_cost_network.node[6].core_layer 	data[6] 	47894
scalar abilene_cost_network.node[6].content_store 	p_hit[6] 	0.16540619663333
scalar abilene_cost_network.node[6].content_store 	hits[6] 	9492
scalar abilene_cost_network.node[6].content_store 	misses[6] 	47894
scalar abilene_cost_network.node[6].content_store 	decision_yes[6] 	71
scalar abilene_cost_network.node[6].content_store 	decision_no[6] 	47823
scalar abilene_cost_network.node[6].content_store 	decision_ratio[6] 	0.0014824403891928
scalar abilene_cost_network.node[6].content_store 	correction_factor[6] 	0.0027225701061802
scalar abilene_cost_network.node[6].content_store 	xi[6] 	1
scalar abilene_cost_network.node[7].core_layer 	interests[7] 	127536
scalar abilene_cost_network.node[7].core_layer 	data[7] 	90432
scalar abilene_cost_network.node[7].content_store 	p_hit[7] 	0.29084336971522
scalar abilene_cost_network.node[7].content_store 	hits[7] 	37093
scalar abilene_cost_network.node[7].content_store 	misses[7] 	90443
scalar abilene_cost_network.node[7].content_store 	decision_yes[7] 	190
scalar abilene_cost_network.node[7].content_store 	decision_no[7] 	90242
scalar abilene_cost_network.node[7].content_store 	decision_ratio[7] 	0.0021010261854211
scalar abilene_cost_network.node[7].content_store 	correction_factor[7] 	0.0027225701061802
scalar abilene_cost_network.node[7].content_store 	xi[7] 	1
scalar abilene_cost_network.node[8].core_layer 	interests[8] 	82274
scalar abilene_cost_network.node[8].core_layer 	data[8] 	70059
scalar abilene_cost_network.node[8].content_store 	p_hit[8] 	0.14845516201959
scalar abilene_cost_network.node[8].content_store 	hits[8] 	12214
scalar abilene_cost_network.node[8].content_store 	misses[8] 	70060
scalar abilene_cost_network.node[8].content_store 	decision_yes[8] 	69
scalar abilene_cost_network.node[8].content_store 	decision_no[8] 	69990
scalar abilene_cost_network.node[8].content_store 	decision_ratio[8] 	0.00098488416905751
scalar abilene_cost_network.node[8].content_store 	correction_factor[8] 	0.0027225701061802
scalar abilene_cost_network.node[8].content_store 	xi[8] 	1
scalar abilene_cost_network.node[9].core_layer 	interests[9] 	187745
scalar abilene_cost_network.node[9].core_layer 	data[9] 	172795
scalar abilene_cost_network.node[9].content_store 	p_hit[9] 	0.061343844043783
scalar abilene_cost_network.node[9].content_store 	hits[9] 	11517
scalar abilene_cost_network.node[9].content_store 	misses[9] 	176228
scalar abilene_cost_network.node[9].content_store 	decision_yes[9] 	696
scalar abilene_cost_network.node[9].content_store 	decision_no[9] 	172099
scalar abilene_cost_network.node[9].content_store 	decision_ratio[9] 	0.004027894325646
scalar abilene_cost_network.node[9].content_store 	correction_factor[9] 	0.0027225701061802
scalar abilene_cost_network.node[9].content_store 	xi[9] 	1
scalar abilene_cost_network.node[10].core_layer 	interests[10] 	227376
scalar abilene_cost_network.node[10].core_layer 	data[10] 	199364
scalar abilene_cost_network.node[10].content_store 	p_hit[10] 	0.12319681936528
scalar abilene_cost_network.node[10].content_store 	hits[10] 	28012
scalar abilene_cost_network.node[10].content_store 	misses[10] 	199364
scalar abilene_cost_network.node[10].content_store 	decision_yes[10] 	646
scalar abilene_cost_network.node[10].content_store 	decision_no[10] 	198718
scalar abilene_cost_network.node[10].content_store 	decision_ratio[10] 	0.0032403041672519
scalar abilene_cost_network.node[10].content_store 	correction_factor[10] 	0.0027225701061802
scalar abilene_cost_network.node[10].content_store 	xi[10] 	1
scalar abilene_cost_network.node[11].core_layer 	interests[11] 	154194
scalar abilene_cost_network.node[11].core_layer 	repo_load[11] 	154194
scalar abilene_cost_network.node[11].core_layer 	data[11] 	0
scalar abilene_cost_network.node[11].content_store 	p_hit[11] 	0
scalar abilene_cost_network.node[11].content_store 	hits[11] 	0
scalar abilene_cost_network.node[11].content_store 	misses[11] 	154194
scalar abilene_cost_network.node[11].content_store 	decision_yes[11] 	0
scalar abilene_cost_network.node[11].content_store 	decision_no[11] 	154194
scalar abilene_cost_network.node[11].content_store 	decision_ratio[11] 	0
scalar abilene_cost_network.node[12].core_layer 	interests[12] 	73894
scalar abilene_cost_network.node[12].core_layer 	repo_load[12] 	73894
scalar abilene_cost_network.node[12].core_layer 	data[12] 	0
scalar abilene_cost_network.node[12].content_store 	p_hit[12] 	0
scalar abilene_cost_network.node[12].content_store 	hits[12] 	0
scalar abilene_cost_network.node[12].content_store 	misses[12] 	73894
scalar abilene_cost_network.node[12].content_store 	decision_yes[12] 	0
scalar abilene_cost_network.node[12].content_store 	decision_no[12] 	73894
scalar abilene_cost_network.node[12].content_store 	decision_ratio[12] 	0
scalar abilene_cost_network.node[13].core_layer 	interests[13] 	71069
scalar abilene_cost_network.node[13].core_layer 	repo_load[13] 	71069
scalar abilene_cost_network.node[13].core_layer 	data[13] 	0
scalar abilene_cost_network.node[13].content_store 	p_hit[13] 	0
scalar abilene_cost_network.node[13].content_store 	hits[13] 	0
scalar abilene_cost_network.node[13].content_store 	misses[13] 	71069
scalar abilene_cost_network.node[13].content_store 	decision_yes[13] 	0
scalar abilene_cost_network.node[13].content_store 	decision_no[13] 	71069
scalar abilene_cost_network.node[13].content_store 	decision_ratio[13] 	0
scalar abilene_cost_network.client[0] 	hdistance[0] 	3.1146176120296
scalar abilene_cost_network.client[0] 	downloads[0] 	177163
scalar abilene_cost_network.client[0] 	avg_time[0] 	0.01448026497
scalar abilene_cost_network.client[0] 	interests_sent[0] 	180360
scalar abilene_cost_network.client[5] 	hdistance[5] 	4.6399667452791
scalar abilene_cost_network.client[5] 	downloads[5] 	176817
scalar abilene_cost_network.client[5] 	avg_time[5] 	0.019245219992
scalar abilene_cost_network.client[5] 	interests_sent[5] 	179551
scalar abilene_cost_network.client[9] 	hdistance[9] 	2.8658613213475
scalar abilene_cost_network.client[9] 	downloads[9] 	176653
scalar abilene_cost_network.client[9] 	avg_time[9] 	0.013483501162
scalar abilene_cost_network.client[9] 	interests_sent[9] 	180086
