version 2
run General-43-20140626-17:35:25-16762
attr D costprobprodcorr0.01
attr F nrr
attr R lru
attr a 1
attr configname General
attr csize 1e3
attr ctlg 1e5
attr datetime 20140626-17:35:25
attr experiment General
attr inifile omnetpp.ini
attr iterationvars "$net=abilene_cost, $rep=3, $priceratiovalue=10, $weights=0.333_0.333_0.334, $lambda=100, $a=1, $ctlg=1e5, $F=nrr, $ttl=1000, $D=costprobprodcorr0.01, $xi=1, $R=lru, $csize=1e3, $pricebits=0, $mytime=1800"
attr iterationvars2 "$net=abilene_cost, $rep=3, $priceratiovalue=10, $weights=0.333_0.333_0.334, $lambda=100, $a=1, $ctlg=1e5, $F=nrr, $ttl=1000, $D=costprobprodcorr0.01, $xi=1, $R=lru, $csize=1e3, $pricebits=0, $mytime=1800, $repetition=0"
attr lambda 100
attr measurement "$net=abilene_cost, $rep=3, $priceratiovalue=10, $weights=0.333_0.333_0.334, $lambda=100, $a=1, $ctlg=1e5, $F=nrr, $ttl=1000, $D=costprobprodcorr0.01, $xi=1, $R=lru, $csize=1e3, $pricebits=0, $mytime=1800"
attr mytime 1800
attr net abilene_cost
attr network "networks.${net=geant_cost, abilene_cost}_network"
attr pricebits 0
attr priceratiovalue 10
attr processid 16762
attr rep 3
attr repetition 0
attr replication #0
attr resultdir results
attr runnumber 43
attr seedset 3
attr ttl 1000
attr weights 0.333_0.333_0.334
attr xi 1

scalar . 	a 	1
scalar . 	csize 	1e3
scalar . 	ctlg 	1e5
scalar . 	lambda 	100
scalar . 	mytime 	1800
scalar . 	pricebits 	0
scalar . 	priceratiovalue 	10
scalar . 	rep 	3
scalar . 	ttl 	1000
scalar . 	xi 	1
scalar abilene_cost_network.content_distribution 	repo-0 	11
scalar abilene_cost_network.content_distribution 	repo-1 	12
scalar abilene_cost_network.content_distribution 	repo-2 	13
scalar abilene_cost_network.content_distribution 	client-0 	5
scalar abilene_cost_network.content_distribution 	client-1 	0
scalar abilene_cost_network.content_distribution 	client-2 	9
scalar abilene_cost_network.content_distribution 	repo-0_card 	33496
scalar abilene_cost_network.content_distribution 	repo-1_card 	33170
scalar abilene_cost_network.content_distribution 	repo-2_card 	33334
scalar abilene_cost_network.statistics 	repo_popularity[0] 	0.34985511604573
scalar abilene_cost_network.statistics 	repo_popularity[1] 	0.30142619076767
scalar abilene_cost_network.statistics 	repo_popularity[2] 	0.3487186931866
scalar abilene_cost_network.statistics 	stabilization_time 	2355.1
scalar abilene_cost_network.node[1].face$o[4].channel 	price[1] 	0
scalar abilene_cost_network.node[1].face$o[4].channel 	represented_price[1] 	0
scalar abilene_cost_network.node[7].face$o[4].channel 	price[7] 	0
scalar abilene_cost_network.node[7].face$o[4].channel 	represented_price[7] 	0
scalar abilene_cost_network.node[10].face$o[4].channel 	price[10] 	0
scalar abilene_cost_network.node[10].face$o[4].channel 	represented_price[10] 	0
scalar abilene_cost_network.node[11].face$o[1].channel 	price[11] 	0
scalar abilene_cost_network.node[11].face$o[1].channel 	represented_price[11] 	0
scalar abilene_cost_network.node[12].face$o[1].channel 	price[12] 	1
scalar abilene_cost_network.node[12].face$o[1].channel 	represented_price[12] 	1
scalar abilene_cost_network.node[13].face$o[1].channel 	price[13] 	10
scalar abilene_cost_network.node[13].face$o[1].channel 	represented_price[13] 	10
scalar abilene_cost_network.statistics 	p_hit 	0.094067977280353
scalar abilene_cost_network.statistics 	interests 	151775.5
scalar abilene_cost_network.statistics 	data 	113133.85714286
scalar abilene_cost_network.statistics 	hdistance 	3.5995571353415
scalar abilene_cost_network.statistics 	avg_time 	0.015092134694
scalar abilene_cost_network.statistics 	downloads 	532907
scalar abilene_cost_network.statistics 	total_cost 	779621
scalar abilene_cost_network.statistics 	total_replicas 	100000
scalar abilene_cost_network.statistics 	inner_hit 	0.37515926793981
scalar abilene_cost_network.statistics 	interests_sent 	540987
scalar abilene_cost_network.node[0].core_layer 	interests[0] 	191207
scalar abilene_cost_network.node[0].core_layer 	data[0] 	169630
scalar abilene_cost_network.node[0].core_layer 	repo_int[0] 	332982
scalar abilene_cost_network.node[0].content_store 	p_hit[0] 	0.10176405675524
scalar abilene_cost_network.node[0].content_store 	hits[0] 	19458
scalar abilene_cost_network.node[0].content_store 	misses[0] 	171749
scalar abilene_cost_network.node[0].content_store 	decision_yes[0] 	738
scalar abilene_cost_network.node[0].content_store 	decision_no[0] 	168892
scalar abilene_cost_network.node[0].content_store 	decision_ratio[0] 	0.004350645522608
scalar abilene_cost_network.node[0].content_store 	correction_factor[0] 	0.0027225701061802
scalar abilene_cost_network.node[0].content_store 	xi[0] 	1
scalar abilene_cost_network.node[1].core_layer 	interests[1] 	249860
scalar abilene_cost_network.node[1].core_layer 	data[1] 	189291
scalar abilene_cost_network.node[1].content_store 	p_hit[1] 	0.24241175058032
scalar abilene_cost_network.node[1].content_store 	hits[1] 	60569
scalar abilene_cost_network.node[1].content_store 	misses[1] 	189291
scalar abilene_cost_network.node[1].content_store 	decision_yes[1] 	2005
scalar abilene_cost_network.node[1].content_store 	decision_no[1] 	187286
scalar abilene_cost_network.node[1].content_store 	decision_ratio[1] 	0.010592157049199
scalar abilene_cost_network.node[1].content_store 	correction_factor[1] 	0.0027225701061802
scalar abilene_cost_network.node[1].content_store 	xi[1] 	1
scalar abilene_cost_network.node[2].core_layer 	interests[2] 	173695
scalar abilene_cost_network.node[2].core_layer 	data[2] 	162473
scalar abilene_cost_network.node[2].content_store 	p_hit[2] 	0.064394484585049
scalar abilene_cost_network.node[2].content_store 	hits[2] 	11185
scalar abilene_cost_network.node[2].content_store 	misses[2] 	162510
scalar abilene_cost_network.node[2].content_store 	decision_yes[2] 	719
scalar abilene_cost_network.node[2].content_store 	decision_no[2] 	161753
scalar abilene_cost_network.node[2].content_store 	decision_ratio[2] 	0.0044253779112709
scalar abilene_cost_network.node[2].content_store 	correction_factor[2] 	0.0027225701061802
scalar abilene_cost_network.node[2].content_store 	xi[2] 	1
scalar abilene_cost_network.node[3].core_layer 	interests[3] 	169010
scalar abilene_cost_network.node[3].core_layer 	data[3] 	153775
scalar abilene_cost_network.node[3].content_store 	p_hit[3] 	0.090154428732028
scalar abilene_cost_network.node[3].content_store 	hits[3] 	15237
scalar abilene_cost_network.node[3].content_store 	misses[3] 	153773
scalar abilene_cost_network.node[3].content_store 	decision_yes[3] 	770
scalar abilene_cost_network.node[3].content_store 	decision_no[3] 	153004
scalar abilene_cost_network.node[3].content_store 	decision_ratio[3] 	0.0050073484464214
scalar abilene_cost_network.node[3].content_store 	correction_factor[3] 	0.0027225701061802
scalar abilene_cost_network.node[3].content_store 	xi[3] 	1
scalar abilene_cost_network.node[4].core_layer 	interests[4] 	127860
scalar abilene_cost_network.node[4].core_layer 	data[4] 	122374
scalar abilene_cost_network.node[4].content_store 	p_hit[4] 	0.042914124824026
scalar abilene_cost_network.node[4].content_store 	hits[4] 	5487
scalar abilene_cost_network.node[4].content_store 	misses[4] 	122373
scalar abilene_cost_network.node[4].content_store 	decision_yes[4] 	630
scalar abilene_cost_network.node[4].content_store 	decision_no[4] 	121744
scalar abilene_cost_network.node[4].content_store 	decision_ratio[4] 	0.0051481523853106
scalar abilene_cost_network.node[4].content_store 	correction_factor[4] 	0.0027225701061802
scalar abilene_cost_network.node[4].content_store 	xi[4] 	1
scalar abilene_cost_network.node[5].core_layer 	interests[5] 	190325
scalar abilene_cost_network.node[5].core_layer 	data[5] 	168216
scalar abilene_cost_network.node[5].content_store 	p_hit[5] 	0.09563641140155
scalar abilene_cost_network.node[5].content_store 	hits[5] 	18202
scalar abilene_cost_network.node[5].content_store 	misses[5] 	172123
scalar abilene_cost_network.node[5].content_store 	decision_yes[5] 	668
scalar abilene_cost_network.node[5].content_store 	decision_no[5] 	167548
scalar abilene_cost_network.node[5].content_store 	decision_ratio[5] 	0.0039710847957388
scalar abilene_cost_network.node[5].content_store 	correction_factor[5] 	0.0027225701061802
scalar abilene_cost_network.node[5].content_store 	xi[5] 	1
scalar abilene_cost_network.node[6].core_layer 	interests[6] 	56078
scalar abilene_cost_network.node[6].core_layer 	data[6] 	47649
scalar abilene_cost_network.node[6].content_store 	p_hit[6] 	0.15030849887656
scalar abilene_cost_network.node[6].content_store 	hits[6] 	8429
scalar abilene_cost_network.node[6].content_store 	misses[6] 	47649
scalar abilene_cost_network.node[6].content_store 	decision_yes[6] 	71
scalar abilene_cost_network.node[6].content_store 	decision_no[6] 	47578
scalar abilene_cost_network.node[6].content_store 	decision_ratio[6] 	0.0014900627505299
scalar abilene_cost_network.node[6].content_store 	correction_factor[6] 	0.0027225701061802
scalar abilene_cost_network.node[6].content_store 	xi[6] 	1
scalar abilene_cost_network.node[7].core_layer 	interests[7] 	119015
scalar abilene_cost_network.node[7].core_layer 	data[7] 	94116
scalar abilene_cost_network.node[7].content_store 	p_hit[7] 	0.20916691173382
scalar abilene_cost_network.node[7].content_store 	hits[7] 	24894
scalar abilene_cost_network.node[7].content_store 	misses[7] 	94121
scalar abilene_cost_network.node[7].content_store 	decision_yes[7] 	216
scalar abilene_cost_network.node[7].content_store 	decision_no[7] 	93900
scalar abilene_cost_network.node[7].content_store 	decision_ratio[7] 	0.0022950401632029
scalar abilene_cost_network.node[7].content_store 	correction_factor[7] 	0.0027225701061802
scalar abilene_cost_network.node[7].content_store 	xi[7] 	1
scalar abilene_cost_network.node[8].core_layer 	interests[8] 	62779
scalar abilene_cost_network.node[8].core_layer 	data[8] 	58868
scalar abilene_cost_network.node[8].content_store 	p_hit[8] 	0.062281973271317
scalar abilene_cost_network.node[8].content_store 	hits[8] 	3910
scalar abilene_cost_network.node[8].content_store 	misses[8] 	58869
scalar abilene_cost_network.node[8].content_store 	decision_yes[8] 	62
scalar abilene_cost_network.node[8].content_store 	decision_no[8] 	58806
scalar abilene_cost_network.node[8].content_store 	decision_ratio[8] 	0.0010532037779439
scalar abilene_cost_network.node[8].content_store 	correction_factor[8] 	0.0027225701061802
scalar abilene_cost_network.node[8].content_store 	xi[8] 	1
scalar abilene_cost_network.node[9].core_layer 	interests[9] 	195866
scalar abilene_cost_network.node[9].core_layer 	data[9] 	169919
scalar abilene_cost_network.node[9].content_store 	p_hit[9] 	0.12198646013091
scalar abilene_cost_network.node[9].content_store 	hits[9] 	23893
scalar abilene_cost_network.node[9].content_store 	misses[9] 	171973
scalar abilene_cost_network.node[9].content_store 	decision_yes[9] 	709
scalar abilene_cost_network.node[9].content_store 	decision_no[9] 	169210
scalar abilene_cost_network.node[9].content_store 	decision_ratio[9] 	0.0041725763451998
scalar abilene_cost_network.node[9].content_store 	correction_factor[9] 	0.0027225701061802
scalar abilene_cost_network.node[9].content_store 	xi[9] 	1
scalar abilene_cost_network.node[10].core_layer 	interests[10] 	256180
scalar abilene_cost_network.node[10].core_layer 	data[10] 	247563
scalar abilene_cost_network.node[10].content_store 	p_hit[10] 	0.033636505582013
scalar abilene_cost_network.node[10].content_store 	hits[10] 	8617
scalar abilene_cost_network.node[10].content_store 	misses[10] 	247563
scalar abilene_cost_network.node[10].content_store 	decision_yes[10] 	638
scalar abilene_cost_network.node[10].content_store 	decision_no[10] 	246925
scalar abilene_cost_network.node[10].content_store 	decision_ratio[10] 	0.0025771217831421
scalar abilene_cost_network.node[10].content_store 	correction_factor[10] 	0.0027225701061802
scalar abilene_cost_network.node[10].content_store 	xi[10] 	1
scalar abilene_cost_network.node[11].core_layer 	interests[11] 	187888
scalar abilene_cost_network.node[11].core_layer 	repo_load[11] 	187888
scalar abilene_cost_network.node[11].core_layer 	data[11] 	0
scalar abilene_cost_network.node[11].content_store 	p_hit[11] 	0
scalar abilene_cost_network.node[11].content_store 	hits[11] 	0
scalar abilene_cost_network.node[11].content_store 	misses[11] 	187888
scalar abilene_cost_network.node[11].content_store 	decision_yes[11] 	0
scalar abilene_cost_network.node[11].content_store 	decision_no[11] 	187888
scalar abilene_cost_network.node[11].content_store 	decision_ratio[11] 	0
scalar abilene_cost_network.node[12].core_layer 	interests[12] 	74591
scalar abilene_cost_network.node[12].core_layer 	repo_load[12] 	74591
scalar abilene_cost_network.node[12].core_layer 	data[12] 	0
scalar abilene_cost_network.node[12].content_store 	p_hit[12] 	0
scalar abilene_cost_network.node[12].content_store 	hits[12] 	0
scalar abilene_cost_network.node[12].content_store 	misses[12] 	74591
scalar abilene_cost_network.node[12].content_store 	decision_yes[12] 	0
scalar abilene_cost_network.node[12].content_store 	decision_no[12] 	74591
scalar abilene_cost_network.node[12].content_store 	decision_ratio[12] 	0
scalar abilene_cost_network.node[13].core_layer 	interests[13] 	70503
scalar abilene_cost_network.node[13].core_layer 	repo_load[13] 	70503
scalar abilene_cost_network.node[13].core_layer 	data[13] 	0
scalar abilene_cost_network.node[13].content_store 	p_hit[13] 	0
scalar abilene_cost_network.node[13].content_store 	hits[13] 	0
scalar abilene_cost_network.node[13].content_store 	misses[13] 	70503
scalar abilene_cost_network.node[13].content_store 	decision_yes[13] 	0
scalar abilene_cost_network.node[13].content_store 	decision_no[13] 	70503
scalar abilene_cost_network.node[13].content_store 	decision_ratio[13] 	0
scalar abilene_cost_network.client[0] 	hdistance[0] 	3.0666797863368
scalar abilene_cost_network.client[0] 	downloads[0] 	177850
scalar abilene_cost_network.client[0] 	avg_time[0] 	0.013359407416
scalar abilene_cost_network.client[0] 	interests_sent[0] 	179969
scalar abilene_cost_network.client[5] 	hdistance[5] 	4.8481380378327
scalar abilene_cost_network.client[5] 	downloads[5] 	176937
scalar abilene_cost_network.client[5] 	avg_time[5] 	0.020003964788
scalar abilene_cost_network.client[5] 	interests_sent[5] 	180844
scalar abilene_cost_network.client[9] 	hdistance[9] 	2.883853581855
scalar abilene_cost_network.client[9] 	downloads[9] 	178120
scalar abilene_cost_network.client[9] 	avg_time[9] 	0.01191303188
scalar abilene_cost_network.client[9] 	interests_sent[9] 	180174
