version 2
run General-272-20140502-01:34:28-9151
attr D costprob0.001
attr F nrr
attr R lru
attr a 1
attr configname General
attr csize 1e3
attr ctlg 1e5
attr datetime 20140502-01:34:28
attr experiment General
attr inifile omnetpp.ini
attr iterationvars "$net=three_caches_scenario_3_links, $rep=1, $priceratiovalue=2, $weights=0_0.5_0.5, $a=1, $ctlg=1e5, $F=nrr, $ttl=1000, $D=costprob0.001, $xi=1, $R=lru, $csize=1e3"
attr iterationvars2 "$net=three_caches_scenario_3_links, $rep=1, $priceratiovalue=2, $weights=0_0.5_0.5, $a=1, $ctlg=1e5, $F=nrr, $ttl=1000, $D=costprob0.001, $xi=1, $R=lru, $csize=1e3, $repetition=0"
attr measurement "$net=three_caches_scenario_3_links, $rep=1, $priceratiovalue=2, $weights=0_0.5_0.5, $a=1, $ctlg=1e5, $F=nrr, $ttl=1000, $D=costprob0.001, $xi=1, $R=lru, $csize=1e3"
attr net three_caches_scenario_3_links
attr network networks.${net=three_caches_scenario_3_links}_network
attr priceratiovalue 2
attr processid 9151
attr rep 1
attr repetition 0
attr replication #0
attr resultdir results
attr runnumber 272
attr seedset 1
attr ttl 1000
attr weights 0_0.5_0.5
attr xi 1

scalar . 	a 	1
scalar . 	csize 	1e3
scalar . 	ctlg 	1e5
scalar . 	priceratiovalue 	2
scalar . 	rep 	1
scalar . 	ttl 	1000
scalar . 	xi 	1
scalar three_caches_scenario_3_links_network.content_distribution 	repo-0 	4
scalar three_caches_scenario_3_links_network.content_distribution 	repo-1 	5
scalar three_caches_scenario_3_links_network.content_distribution 	repo-2 	6
scalar three_caches_scenario_3_links_network.content_distribution 	client-0 	0
scalar three_caches_scenario_3_links_network.content_distribution 	repo-0_card 	0
scalar three_caches_scenario_3_links_network.content_distribution 	repo-1_card 	50024
scalar three_caches_scenario_3_links_network.content_distribution 	repo-2_card 	49976
scalar three_caches_scenario_3_links_network.statistics 	p_hit 	0.25770930170229
scalar three_caches_scenario_3_links_network.statistics 	interests 	55966.714285714
scalar three_caches_scenario_3_links_network.statistics 	data 	30165.285714286
scalar three_caches_scenario_3_links_network.statistics 	hdistance 	1.6101267925364
scalar three_caches_scenario_3_links_network.statistics 	avg_time 	0
scalar three_caches_scenario_3_links_network.statistics 	downloads 	180610
scalar three_caches_scenario_3_links_network.statistics 	total_cost 	118301
scalar three_caches_scenario_3_links_network.statistics 	total_replicas 	100000
scalar three_caches_scenario_3_links_network.statistics 	interests_sent 	180610
scalar three_caches_scenario_3_links_network.node[0].core_layer 	interests[0] 	180610
scalar three_caches_scenario_3_links_network.node[0].core_layer 	data[0] 	131509
scalar three_caches_scenario_3_links_network.node[0].core_layer 	repo_int[0] 	79648
scalar three_caches_scenario_3_links_network.node[0].content_store 	p_hit[0] 	0.27186202314379
scalar three_caches_scenario_3_links_network.node[0].content_store 	hits[0] 	49101
scalar three_caches_scenario_3_links_network.node[0].content_store 	misses[0] 	131509
scalar three_caches_scenario_3_links_network.node[0].content_store 	decision_yes[0] 	66
scalar three_caches_scenario_3_links_network.node[0].content_store 	decision_no[0] 	131443
scalar three_caches_scenario_3_links_network.node[1].core_layer 	interests[1] 	0
scalar three_caches_scenario_3_links_network.node[1].core_layer 	data[1] 	0
scalar three_caches_scenario_3_links_network.node[1].content_store 	p_hit[1] 	-nan
scalar three_caches_scenario_3_links_network.node[1].content_store 	hits[1] 	0
scalar three_caches_scenario_3_links_network.node[1].content_store 	misses[1] 	0
scalar three_caches_scenario_3_links_network.node[1].content_store 	decision_yes[1] 	0
scalar three_caches_scenario_3_links_network.node[1].content_store 	decision_no[1] 	0
scalar three_caches_scenario_3_links_network.node[2].core_layer 	interests[2] 	71532
scalar three_caches_scenario_3_links_network.node[2].core_layer 	data[2] 	40995
scalar three_caches_scenario_3_links_network.node[2].content_store 	p_hit[2] 	0.42689984901862
scalar three_caches_scenario_3_links_network.node[2].content_store 	hits[2] 	30537
scalar three_caches_scenario_3_links_network.node[2].content_store 	misses[2] 	40995
scalar three_caches_scenario_3_links_network.node[2].content_store 	decision_yes[2] 	34
scalar three_caches_scenario_3_links_network.node[2].content_store 	decision_no[2] 	40961
scalar three_caches_scenario_3_links_network.node[3].core_layer 	interests[3] 	59977
scalar three_caches_scenario_3_links_network.node[3].core_layer 	data[3] 	38653
scalar three_caches_scenario_3_links_network.node[3].content_store 	p_hit[3] 	0.35553628891075
scalar three_caches_scenario_3_links_network.node[3].content_store 	hits[3] 	21324
scalar three_caches_scenario_3_links_network.node[3].content_store 	misses[3] 	38653
scalar three_caches_scenario_3_links_network.node[3].content_store 	decision_yes[3] 	44
scalar three_caches_scenario_3_links_network.node[3].content_store 	decision_no[3] 	38609
scalar three_caches_scenario_3_links_network.node[4].core_layer 	interests[4] 	0
scalar three_caches_scenario_3_links_network.node[4].core_layer 	data[4] 	0
scalar three_caches_scenario_3_links_network.node[4].content_store 	p_hit[4] 	-nan
scalar three_caches_scenario_3_links_network.node[4].content_store 	hits[4] 	0
scalar three_caches_scenario_3_links_network.node[4].content_store 	misses[4] 	0
scalar three_caches_scenario_3_links_network.node[4].content_store 	decision_yes[4] 	0
scalar three_caches_scenario_3_links_network.node[4].content_store 	decision_no[4] 	0
scalar three_caches_scenario_3_links_network.node[5].core_layer 	interests[5] 	40995
scalar three_caches_scenario_3_links_network.node[5].core_layer 	repo_load[5] 	40995
scalar three_caches_scenario_3_links_network.node[5].core_layer 	data[5] 	0
scalar three_caches_scenario_3_links_network.node[5].content_store 	p_hit[5] 	0
scalar three_caches_scenario_3_links_network.node[5].content_store 	hits[5] 	0
scalar three_caches_scenario_3_links_network.node[5].content_store 	misses[5] 	40995
scalar three_caches_scenario_3_links_network.node[5].content_store 	decision_yes[5] 	0
scalar three_caches_scenario_3_links_network.node[5].content_store 	decision_no[5] 	40995
scalar three_caches_scenario_3_links_network.node[6].core_layer 	interests[6] 	38653
scalar three_caches_scenario_3_links_network.node[6].core_layer 	repo_load[6] 	38653
scalar three_caches_scenario_3_links_network.node[6].core_layer 	data[6] 	0
scalar three_caches_scenario_3_links_network.node[6].content_store 	p_hit[6] 	0
scalar three_caches_scenario_3_links_network.node[6].content_store 	hits[6] 	0
scalar three_caches_scenario_3_links_network.node[6].content_store 	misses[6] 	38653
scalar three_caches_scenario_3_links_network.node[6].content_store 	decision_yes[6] 	0
scalar three_caches_scenario_3_links_network.node[6].content_store 	decision_no[6] 	38653
scalar three_caches_scenario_3_links_network.client[0] 	hdistance[0] 	1.6101267925364
scalar three_caches_scenario_3_links_network.client[0] 	downloads[0] 	180610
scalar three_caches_scenario_3_links_network.client[0] 	avg_time[0] 	0
scalar three_caches_scenario_3_links_network.client[0] 	interests_sent[0] 	180610
