version 2
run General-1074-20140422-20:01:32-27892
attr D lce
attr F nrr
attr R lru
attr a 1.2
attr configname General
attr csize 10
attr ctlg 10^3
attr datetime 20140422-20:01:32
attr experiment General
attr inifile omnetpp.ini
attr iterationvars "$net=simple_scenario, $rep=9, $priceratiovalue=10, $a=1.2, $ctlg=10^3, $F=nrr, $ttl=1000, $D=lce, $R=lru, $csize=10"
attr iterationvars2 "$net=simple_scenario, $rep=9, $priceratiovalue=10, $a=1.2, $ctlg=10^3, $F=nrr, $ttl=1000, $D=lce, $R=lru, $csize=10, $repetition=0"
attr measurement "$net=simple_scenario, $rep=9, $priceratiovalue=10, $a=1.2, $ctlg=10^3, $F=nrr, $ttl=1000, $D=lce, $R=lru, $csize=10"
attr net simple_scenario
attr network networks.${net=simple_scenario}_network
attr priceratiovalue 10
attr processid 27892
attr rep 9
attr repetition 0
attr replication #0
attr resultdir results
attr runnumber 1074
attr seedset 9
attr ttl 1000

scalar . 	a 	1.2
scalar . 	csize 	10
scalar . 	priceratiovalue 	10
scalar . 	rep 	9
scalar . 	ttl 	1000
scalar simple_scenario_network.content_distribution 	repo-0 	3
scalar simple_scenario_network.content_distribution 	repo-1 	4
scalar simple_scenario_network.content_distribution 	client-0 	0
scalar simple_scenario_network.content_distribution 	repo-0_card 	514
scalar simple_scenario_network.content_distribution 	repo-1_card 	486
scalar simple_scenario_network.statistics 	p_hit 	0.23934125481837
scalar simple_scenario_network.statistics 	interests 	75440.4
scalar simple_scenario_network.statistics 	data 	39438.4
scalar simple_scenario_network.statistics 	hdistance 	1.5939225598578
scalar simple_scenario_network.statistics 	avg_time 	0.00198513869
scalar simple_scenario_network.statistics 	downloads 	180010
scalar simple_scenario_network.statistics 	total_cost 	37147
scalar simple_scenario_network.node[0].core_layer 	interests[0] 	180010
scalar simple_scenario_network.node[0].core_layer 	data[0] 	107462
scalar simple_scenario_network.node[0].core_layer 	repo_int[0] 	89730
scalar simple_scenario_network.node[0].content_store 	p_hit[0] 	0.40302205433031
scalar simple_scenario_network.node[0].content_store 	hits[0] 	72548
scalar simple_scenario_network.node[0].content_store 	misses[0] 	107462
scalar simple_scenario_network.node[1].core_layer 	interests[1] 	63660
scalar simple_scenario_network.node[1].core_layer 	data[1] 	54297
scalar simple_scenario_network.node[1].content_store 	p_hit[1] 	0.14707822808671
scalar simple_scenario_network.node[1].content_store 	hits[1] 	9363
scalar simple_scenario_network.node[1].content_store 	misses[1] 	54297
scalar simple_scenario_network.node[2].core_layer 	interests[2] 	43802
scalar simple_scenario_network.node[2].core_layer 	data[2] 	35433
scalar simple_scenario_network.node[2].content_store 	p_hit[2] 	0.19106433496187
scalar simple_scenario_network.node[2].content_store 	hits[2] 	8369
scalar simple_scenario_network.node[2].content_store 	misses[2] 	35433
scalar simple_scenario_network.node[3].core_layer 	interests[3] 	54297
scalar simple_scenario_network.node[3].core_layer 	repo_load[3] 	54297
scalar simple_scenario_network.node[3].core_layer 	data[3] 	0
scalar simple_scenario_network.node[3].content_store 	p_hit[3] 	0
scalar simple_scenario_network.node[3].content_store 	hits[3] 	0
scalar simple_scenario_network.node[3].content_store 	misses[3] 	54297
scalar simple_scenario_network.node[4].core_layer 	interests[4] 	35433
scalar simple_scenario_network.node[4].core_layer 	repo_load[4] 	35433
scalar simple_scenario_network.node[4].core_layer 	data[4] 	0
scalar simple_scenario_network.node[4].content_store 	p_hit[4] 	0
scalar simple_scenario_network.node[4].content_store 	hits[4] 	0
scalar simple_scenario_network.node[4].content_store 	misses[4] 	35433
scalar simple_scenario_network.client[0] 	hdistance[0] 	1.5939225598578
scalar simple_scenario_network.client[0] 	downloads[0] 	180010
scalar simple_scenario_network.client[0] 	avg_time[0] 	0.00198513869
