version 2
run General-954-20140422-19:58:56-27710
attr D lce
attr F nrr
attr R lru
attr a 1.2
attr configname General
attr csize 10
attr ctlg 10^3
attr datetime 20140422-19:58:56
attr experiment General
attr inifile omnetpp.ini
attr iterationvars "$net=simple_scenario, $rep=8, $priceratiovalue=10, $a=1.2, $ctlg=10^3, $F=nrr, $ttl=1000, $D=lce, $R=lru, $csize=10"
attr iterationvars2 "$net=simple_scenario, $rep=8, $priceratiovalue=10, $a=1.2, $ctlg=10^3, $F=nrr, $ttl=1000, $D=lce, $R=lru, $csize=10, $repetition=0"
attr measurement "$net=simple_scenario, $rep=8, $priceratiovalue=10, $a=1.2, $ctlg=10^3, $F=nrr, $ttl=1000, $D=lce, $R=lru, $csize=10"
attr net simple_scenario
attr network networks.${net=simple_scenario}_network
attr priceratiovalue 10
attr processid 27710
attr rep 8
attr repetition 0
attr replication #0
attr resultdir results
attr runnumber 954
attr seedset 8
attr ttl 1000

scalar . 	a 	1.2
scalar . 	csize 	10
scalar . 	priceratiovalue 	10
scalar . 	rep 	8
scalar . 	ttl 	1000
scalar simple_scenario_network.content_distribution 	repo-0 	3
scalar simple_scenario_network.content_distribution 	repo-1 	4
scalar simple_scenario_network.content_distribution 	client-0 	0
scalar simple_scenario_network.content_distribution 	repo-0_card 	485
scalar simple_scenario_network.content_distribution 	repo-1_card 	515
scalar simple_scenario_network.statistics 	p_hit 	0.24102827029756
scalar simple_scenario_network.statistics 	interests 	75676.6
scalar simple_scenario_network.statistics 	data 	39500.2
scalar simple_scenario_network.statistics 	hdistance 	1.5876759434327
scalar simple_scenario_network.statistics 	avg_time 	0.001985607259
scalar simple_scenario_network.statistics 	downloads 	180882
scalar simple_scenario_network.statistics 	total_cost 	49801
scalar simple_scenario_network.node[0].core_layer 	interests[0] 	180882
scalar simple_scenario_network.node[0].core_layer 	data[0] 	107820
scalar simple_scenario_network.node[0].core_layer 	repo_int[0] 	89681
scalar simple_scenario_network.node[0].content_store 	p_hit[0] 	0.40392078813812
scalar simple_scenario_network.node[0].content_store 	hits[0] 	73062
scalar simple_scenario_network.node[0].content_store 	misses[0] 	107820
scalar simple_scenario_network.node[1].core_layer 	interests[1] 	47706
scalar simple_scenario_network.node[1].core_layer 	data[1] 	38777
scalar simple_scenario_network.node[1].content_store 	p_hit[1] 	0.18716723263321
scalar simple_scenario_network.node[1].content_store 	hits[1] 	8929
scalar simple_scenario_network.node[1].content_store 	misses[1] 	38777
scalar simple_scenario_network.node[2].core_layer 	interests[2] 	60114
scalar simple_scenario_network.node[2].core_layer 	data[2] 	50904
scalar simple_scenario_network.node[2].content_store 	p_hit[2] 	0.15320890308414
scalar simple_scenario_network.node[2].content_store 	hits[2] 	9210
scalar simple_scenario_network.node[2].content_store 	misses[2] 	50904
scalar simple_scenario_network.node[3].core_layer 	interests[3] 	38777
scalar simple_scenario_network.node[3].core_layer 	repo_load[3] 	38777
scalar simple_scenario_network.node[3].core_layer 	data[3] 	0
scalar simple_scenario_network.node[3].content_store 	p_hit[3] 	0
scalar simple_scenario_network.node[3].content_store 	hits[3] 	0
scalar simple_scenario_network.node[3].content_store 	misses[3] 	38777
scalar simple_scenario_network.node[4].core_layer 	interests[4] 	50904
scalar simple_scenario_network.node[4].core_layer 	repo_load[4] 	50904
scalar simple_scenario_network.node[4].core_layer 	data[4] 	0
scalar simple_scenario_network.node[4].content_store 	p_hit[4] 	0
scalar simple_scenario_network.node[4].content_store 	hits[4] 	0
scalar simple_scenario_network.node[4].content_store 	misses[4] 	50904
scalar simple_scenario_network.client[0] 	hdistance[0] 	1.5876759434327
scalar simple_scenario_network.client[0] 	downloads[0] 	180882
scalar simple_scenario_network.client[0] 	avg_time[0] 	0.001985607259
