version 2
run General-594-20140422-19:51:15-27329
attr D lce
attr F nrr
attr R lru
attr a 1.2
attr configname General
attr csize 10
attr ctlg 10^3
attr datetime 20140422-19:51:15
attr experiment General
attr inifile omnetpp.ini
attr iterationvars "$net=simple_scenario, $rep=5, $priceratiovalue=10, $a=1.2, $ctlg=10^3, $F=nrr, $ttl=1000, $D=lce, $R=lru, $csize=10"
attr iterationvars2 "$net=simple_scenario, $rep=5, $priceratiovalue=10, $a=1.2, $ctlg=10^3, $F=nrr, $ttl=1000, $D=lce, $R=lru, $csize=10, $repetition=0"
attr measurement "$net=simple_scenario, $rep=5, $priceratiovalue=10, $a=1.2, $ctlg=10^3, $F=nrr, $ttl=1000, $D=lce, $R=lru, $csize=10"
attr net simple_scenario
attr network networks.${net=simple_scenario}_network
attr priceratiovalue 10
attr processid 27329
attr rep 5
attr repetition 0
attr replication #0
attr resultdir results
attr runnumber 594
attr seedset 5
attr ttl 1000

scalar . 	a 	1.2
scalar . 	csize 	10
scalar . 	priceratiovalue 	10
scalar . 	rep 	5
scalar . 	ttl 	1000
scalar simple_scenario_network.content_distribution 	repo-0 	3
scalar simple_scenario_network.content_distribution 	repo-1 	4
scalar simple_scenario_network.content_distribution 	client-0 	0
scalar simple_scenario_network.content_distribution 	repo-0_card 	495
scalar simple_scenario_network.content_distribution 	repo-1_card 	505
scalar simple_scenario_network.statistics 	p_hit 	0.24183126358356
scalar simple_scenario_network.statistics 	interests 	75274.8
scalar simple_scenario_network.statistics 	data 	39276
scalar simple_scenario_network.statistics 	hdistance 	1.5853584008356
scalar simple_scenario_network.statistics 	avg_time 	0.001985770119
scalar simple_scenario_network.statistics 	downloads 	179994
scalar simple_scenario_network.statistics 	total_cost 	43620
scalar simple_scenario_network.node[0].core_layer 	interests[0] 	179994
scalar simple_scenario_network.node[0].core_layer 	data[0] 	107405
scalar simple_scenario_network.node[0].core_layer 	repo_int[0] 	88975
scalar simple_scenario_network.node[0].content_store 	p_hit[0] 	0.40328566507772
scalar simple_scenario_network.node[0].content_store 	hits[0] 	72589
scalar simple_scenario_network.node[0].content_store 	misses[0] 	107405
scalar simple_scenario_network.node[1].core_layer 	interests[1] 	55123
scalar simple_scenario_network.node[1].core_layer 	data[1] 	45547
scalar simple_scenario_network.node[1].content_store 	p_hit[1] 	0.17372058850208
scalar simple_scenario_network.node[1].content_store 	hits[1] 	9576
scalar simple_scenario_network.node[1].content_store 	misses[1] 	45547
scalar simple_scenario_network.node[2].core_layer 	interests[2] 	52282
scalar simple_scenario_network.node[2].core_layer 	data[2] 	43428
scalar simple_scenario_network.node[2].content_store 	p_hit[2] 	0.16935082820091
scalar simple_scenario_network.node[2].content_store 	hits[2] 	8854
scalar simple_scenario_network.node[2].content_store 	misses[2] 	43428
scalar simple_scenario_network.node[3].core_layer 	interests[3] 	45547
scalar simple_scenario_network.node[3].core_layer 	repo_load[3] 	45547
scalar simple_scenario_network.node[3].core_layer 	data[3] 	0
scalar simple_scenario_network.node[3].content_store 	p_hit[3] 	0
scalar simple_scenario_network.node[3].content_store 	hits[3] 	0
scalar simple_scenario_network.node[3].content_store 	misses[3] 	45547
scalar simple_scenario_network.node[4].core_layer 	interests[4] 	43428
scalar simple_scenario_network.node[4].core_layer 	repo_load[4] 	43428
scalar simple_scenario_network.node[4].core_layer 	data[4] 	0
scalar simple_scenario_network.node[4].content_store 	p_hit[4] 	0
scalar simple_scenario_network.node[4].content_store 	hits[4] 	0
scalar simple_scenario_network.node[4].content_store 	misses[4] 	43428
scalar simple_scenario_network.client[0] 	hdistance[0] 	1.5853584008356
scalar simple_scenario_network.client[0] 	downloads[0] 	179994
scalar simple_scenario_network.client[0] 	avg_time[0] 	0.001985770119
