version 2
run General-30-20140626-17:56:26-10869
attr D fix0.01
attr F spr
attr R lru
attr a 1
attr configname General
attr csize 1e3
attr ctlg 1e5
attr datetime 20140626-17:56:26
attr experiment General
attr inifile omnetpp.ini
attr iterationvars "$net=abilene_cost, $rep=4, $priceratiovalue=10, $weights=0.333_0.333_0.334, $lambda=100, $a=1, $ctlg=1e5, $F=spr, $ttl=1000, $D=fix0.01, $xi=1, $R=lru, $csize=1e3, $pricebits=0, $mytime=1800"
attr iterationvars2 "$net=abilene_cost, $rep=4, $priceratiovalue=10, $weights=0.333_0.333_0.334, $lambda=100, $a=1, $ctlg=1e5, $F=spr, $ttl=1000, $D=fix0.01, $xi=1, $R=lru, $csize=1e3, $pricebits=0, $mytime=1800, $repetition=0"
attr lambda 100
attr measurement "$net=abilene_cost, $rep=4, $priceratiovalue=10, $weights=0.333_0.333_0.334, $lambda=100, $a=1, $ctlg=1e5, $F=spr, $ttl=1000, $D=fix0.01, $xi=1, $R=lru, $csize=1e3, $pricebits=0, $mytime=1800"
attr mytime 1800
attr net abilene_cost
attr network "networks.${net=geant_cost, abilene_cost}_network"
attr pricebits 0
attr priceratiovalue 10
attr processid 10869
attr rep 4
attr repetition 0
attr replication #0
attr resultdir results
attr runnumber 30
attr seedset 4
attr ttl 1000
attr weights 0.333_0.333_0.334
attr xi 1

scalar . 	a 	1
scalar . 	csize 	1e3
scalar . 	ctlg 	1e5
scalar . 	lambda 	100
scalar . 	mytime 	1800
scalar . 	pricebits 	0
scalar . 	priceratiovalue 	10
scalar . 	rep 	4
scalar . 	ttl 	1000
scalar . 	xi 	1
scalar abilene_cost_network.content_distribution 	repo-0 	11
scalar abilene_cost_network.content_distribution 	repo-1 	12
scalar abilene_cost_network.content_distribution 	repo-2 	13
scalar abilene_cost_network.content_distribution 	client-0 	5
scalar abilene_cost_network.content_distribution 	client-1 	0
scalar abilene_cost_network.content_distribution 	client-2 	9
scalar abilene_cost_network.content_distribution 	repo-0_card 	33272
scalar abilene_cost_network.content_distribution 	repo-1_card 	33152
scalar abilene_cost_network.content_distribution 	repo-2_card 	33576
scalar abilene_cost_network.statistics 	repo_popularity[0] 	0.28234107170654
scalar abilene_cost_network.statistics 	repo_popularity[1] 	0.30413978820018
scalar abilene_cost_network.statistics 	repo_popularity[2] 	0.41351914009327
scalar abilene_cost_network.statistics 	stabilization_time 	515.6
scalar abilene_cost_network.node[1].face$o[4].channel 	price[1] 	0
scalar abilene_cost_network.node[1].face$o[4].channel 	represented_price[1] 	0
scalar abilene_cost_network.node[7].face$o[4].channel 	price[7] 	0
scalar abilene_cost_network.node[7].face$o[4].channel 	represented_price[7] 	0
scalar abilene_cost_network.node[10].face$o[4].channel 	price[10] 	0
scalar abilene_cost_network.node[10].face$o[4].channel 	represented_price[10] 	0
scalar abilene_cost_network.node[11].face$o[1].channel 	price[11] 	0
scalar abilene_cost_network.node[11].face$o[1].channel 	represented_price[11] 	0
scalar abilene_cost_network.node[12].face$o[1].channel 	price[12] 	1
scalar abilene_cost_network.node[12].face$o[1].channel 	represented_price[12] 	1
scalar abilene_cost_network.node[13].face$o[1].channel 	price[13] 	10
scalar abilene_cost_network.node[13].face$o[1].channel 	represented_price[13] 	10
scalar abilene_cost_network.statistics 	p_hit 	0.1704429697025
scalar abilene_cost_network.statistics 	interests 	111840.92857143
scalar abilene_cost_network.statistics 	data 	73203
scalar abilene_cost_network.statistics 	hdistance 	2.4016113895405
scalar abilene_cost_network.statistics 	avg_time 	0.009042182599
scalar abilene_cost_network.statistics 	downloads 	540847
scalar abilene_cost_network.statistics 	total_cost 	1016809
scalar abilene_cost_network.statistics 	total_replicas 	100000
scalar abilene_cost_network.statistics 	inner_hit 	0.49344269266539
scalar abilene_cost_network.statistics 	interests_sent 	540933
scalar abilene_cost_network.node[0].core_layer 	interests[0] 	180526
scalar abilene_cost_network.node[0].core_layer 	data[0] 	110003
scalar abilene_cost_network.node[0].core_layer 	repo_int[0] 	273970
scalar abilene_cost_network.node[0].content_store 	p_hit[0] 	0.39046453142484
scalar abilene_cost_network.node[0].content_store 	hits[0] 	70489
scalar abilene_cost_network.node[0].content_store 	misses[0] 	110037
scalar abilene_cost_network.node[0].content_store 	decision_yes[0] 	1077
scalar abilene_cost_network.node[0].content_store 	decision_no[0] 	108926
scalar abilene_cost_network.node[0].content_store 	decision_ratio[0] 	0.009790642073398
scalar abilene_cost_network.node[1].core_layer 	interests[1] 	169157
scalar abilene_cost_network.node[1].core_layer 	data[1] 	158776
scalar abilene_cost_network.node[1].content_store 	p_hit[1] 	0.061369024042753
scalar abilene_cost_network.node[1].content_store 	hits[1] 	10381
scalar abilene_cost_network.node[1].content_store 	misses[1] 	158776
scalar abilene_cost_network.node[1].content_store 	decision_yes[1] 	1559
scalar abilene_cost_network.node[1].content_store 	decision_no[1] 	157217
scalar abilene_cost_network.node[1].content_store 	decision_ratio[1] 	0.0098188643119867
scalar abilene_cost_network.node[2].core_layer 	interests[2] 	98718
scalar abilene_cost_network.node[2].core_layer 	data[2] 	95165
scalar abilene_cost_network.node[2].content_store 	p_hit[2] 	0.035991409874592
scalar abilene_cost_network.node[2].content_store 	hits[2] 	3553
scalar abilene_cost_network.node[2].content_store 	misses[2] 	95165
scalar abilene_cost_network.node[2].content_store 	decision_yes[2] 	966
scalar abilene_cost_network.node[2].content_store 	decision_no[2] 	94199
scalar abilene_cost_network.node[2].content_store 	decision_ratio[2] 	0.010150790731887
scalar abilene_cost_network.node[3].core_layer 	interests[3] 	100002
scalar abilene_cost_network.node[3].core_layer 	data[3] 	95725
scalar abilene_cost_network.node[3].content_store 	p_hit[3] 	0.042769144617108
scalar abilene_cost_network.node[3].content_store 	hits[3] 	4277
scalar abilene_cost_network.node[3].content_store 	misses[3] 	95725
scalar abilene_cost_network.node[3].content_store 	decision_yes[3] 	904
scalar abilene_cost_network.node[3].content_store 	decision_no[3] 	94821
scalar abilene_cost_network.node[3].content_store 	decision_ratio[3] 	0.0094437189866806
scalar abilene_cost_network.node[4].core_layer 	interests[4] 	74362
scalar abilene_cost_network.node[4].core_layer 	data[4] 	68045
scalar abilene_cost_network.node[4].content_store 	p_hit[4] 	0.084949302062882
scalar abilene_cost_network.node[4].content_store 	hits[4] 	6317
scalar abilene_cost_network.node[4].content_store 	misses[4] 	68045
scalar abilene_cost_network.node[4].content_store 	decision_yes[4] 	707
scalar abilene_cost_network.node[4].content_store 	decision_no[4] 	67338
scalar abilene_cost_network.node[4].content_store 	decision_ratio[4] 	0.010390182967154
scalar abilene_cost_network.node[5].core_layer 	interests[5] 	180185
scalar abilene_cost_network.node[5].core_layer 	data[5] 	109819
scalar abilene_cost_network.node[5].content_store 	p_hit[5] 	0.39035435802092
scalar abilene_cost_network.node[5].content_store 	hits[5] 	70336
scalar abilene_cost_network.node[5].content_store 	misses[5] 	109849
scalar abilene_cost_network.node[5].content_store 	decision_yes[5] 	1093
scalar abilene_cost_network.node[5].content_store 	decision_no[5] 	108726
scalar abilene_cost_network.node[5].content_store 	decision_ratio[5] 	0.0099527404183247
scalar abilene_cost_network.node[6].core_layer 	interests[6] 	35457
scalar abilene_cost_network.node[6].core_layer 	data[6] 	30866
scalar abilene_cost_network.node[6].content_store 	p_hit[6] 	0.12948077953578
scalar abilene_cost_network.node[6].content_store 	hits[6] 	4591
scalar abilene_cost_network.node[6].content_store 	misses[6] 	30866
scalar abilene_cost_network.node[6].content_store 	decision_yes[6] 	290
scalar abilene_cost_network.node[6].content_store 	decision_no[6] 	30576
scalar abilene_cost_network.node[6].content_store 	decision_ratio[6] 	0.0093954513056438
scalar abilene_cost_network.node[7].core_layer 	interests[7] 	92923
scalar abilene_cost_network.node[7].core_layer 	data[7] 	84439
scalar abilene_cost_network.node[7].content_store 	p_hit[7] 	0.09130140008394
scalar abilene_cost_network.node[7].content_store 	hits[7] 	8484
scalar abilene_cost_network.node[7].content_store 	misses[7] 	84439
scalar abilene_cost_network.node[7].content_store 	decision_yes[7] 	858
scalar abilene_cost_network.node[7].content_store 	decision_no[7] 	83581
scalar abilene_cost_network.node[7].content_store 	decision_ratio[7] 	0.010161181444593
scalar abilene_cost_network.node[8].core_layer 	interests[8] 	35691
scalar abilene_cost_network.node[8].core_layer 	data[8] 	31239
scalar abilene_cost_network.node[8].content_store 	p_hit[8] 	0.12470931047043
scalar abilene_cost_network.node[8].content_store 	hits[8] 	4451
scalar abilene_cost_network.node[8].content_store 	misses[8] 	31240
scalar abilene_cost_network.node[8].content_store 	decision_yes[8] 	343
scalar abilene_cost_network.node[8].content_store 	decision_no[8] 	30896
scalar abilene_cost_network.node[8].content_store 	decision_ratio[8] 	0.010979864912449
scalar abilene_cost_network.node[9].core_layer 	interests[9] 	180222
scalar abilene_cost_network.node[9].core_layer 	data[9] 	109741
scalar abilene_cost_network.node[9].content_store 	p_hit[9] 	0.39095670894785
scalar abilene_cost_network.node[9].content_store 	hits[9] 	70459
scalar abilene_cost_network.node[9].content_store 	misses[9] 	109763
scalar abilene_cost_network.node[9].content_store 	decision_yes[9] 	1115
scalar abilene_cost_network.node[9].content_store 	decision_no[9] 	108626
scalar abilene_cost_network.node[9].content_store 	decision_ratio[9] 	0.010160286492742
scalar abilene_cost_network.node[10].core_layer 	interests[10] 	144560
scalar abilene_cost_network.node[10].core_layer 	data[10] 	131024
scalar abilene_cost_network.node[10].content_store 	p_hit[10] 	0.093642778085224
scalar abilene_cost_network.node[10].content_store 	hits[10] 	13537
scalar abilene_cost_network.node[10].content_store 	misses[10] 	131023
scalar abilene_cost_network.node[10].content_store 	decision_yes[10] 	1320
scalar abilene_cost_network.node[10].content_store 	decision_no[10] 	129704
scalar abilene_cost_network.node[10].content_store 	decision_ratio[10] 	0.01007449016974
scalar abilene_cost_network.node[11].core_layer 	interests[11] 	96294
scalar abilene_cost_network.node[11].core_layer 	repo_load[11] 	96294
scalar abilene_cost_network.node[11].core_layer 	data[11] 	0
scalar abilene_cost_network.node[11].content_store 	p_hit[11] 	0
scalar abilene_cost_network.node[11].content_store 	hits[11] 	0
scalar abilene_cost_network.node[11].content_store 	misses[11] 	96294
scalar abilene_cost_network.node[11].content_store 	decision_yes[11] 	0
scalar abilene_cost_network.node[11].content_store 	decision_no[11] 	96294
scalar abilene_cost_network.node[11].content_store 	decision_ratio[11] 	0
scalar abilene_cost_network.node[12].core_layer 	interests[12] 	84439
scalar abilene_cost_network.node[12].core_layer 	repo_load[12] 	84439
scalar abilene_cost_network.node[12].core_layer 	data[12] 	0
scalar abilene_cost_network.node[12].content_store 	p_hit[12] 	0
scalar abilene_cost_network.node[12].content_store 	hits[12] 	0
scalar abilene_cost_network.node[12].content_store 	misses[12] 	84439
scalar abilene_cost_network.node[12].content_store 	decision_yes[12] 	0
scalar abilene_cost_network.node[12].content_store 	decision_no[12] 	84439
scalar abilene_cost_network.node[12].content_store 	decision_ratio[12] 	0
scalar abilene_cost_network.node[13].core_layer 	interests[13] 	93237
scalar abilene_cost_network.node[13].core_layer 	repo_load[13] 	93237
scalar abilene_cost_network.node[13].core_layer 	data[13] 	0
scalar abilene_cost_network.node[13].content_store 	p_hit[13] 	0
scalar abilene_cost_network.node[13].content_store 	hits[13] 	0
scalar abilene_cost_network.node[13].content_store 	misses[13] 	93237
scalar abilene_cost_network.node[13].content_store 	decision_yes[13] 	0
scalar abilene_cost_network.node[13].content_store 	decision_no[13] 	93237
scalar abilene_cost_network.node[13].content_store 	decision_ratio[13] 	0
scalar abilene_cost_network.client[0] 	hdistance[0] 	2.1864514770738
scalar abilene_cost_network.client[0] 	downloads[0] 	180492
scalar abilene_cost_network.client[0] 	avg_time[0] 	0.008723463271
scalar abilene_cost_network.client[0] 	interests_sent[0] 	180526
scalar abilene_cost_network.client[5] 	hdistance[5] 	3.0124670422691
scalar abilene_cost_network.client[5] 	downloads[5] 	180155
scalar abilene_cost_network.client[5] 	avg_time[5] 	0.010865093403
scalar abilene_cost_network.client[5] 	interests_sent[5] 	180185
scalar abilene_cost_network.client[9] 	hdistance[9] 	2.0059156492785
scalar abilene_cost_network.client[9] 	downloads[9] 	180200
scalar abilene_cost_network.client[9] 	avg_time[9] 	0.007537991125
scalar abilene_cost_network.client[9] 	interests_sent[9] 	180222
