version 2
run General-30-20140626-17:00:13-16796
attr D fix0.01
attr F spr
attr R lru
attr a 1
attr configname General
attr csize 1e3
attr ctlg 1e5
attr datetime 20140626-17:00:13
attr experiment General
attr inifile omnetpp.ini
attr iterationvars "$net=abilene_cost, $rep=8, $priceratiovalue=10, $weights=0.333_0.333_0.334, $lambda=100, $a=1, $ctlg=1e5, $F=spr, $ttl=1000, $D=fix0.01, $xi=1, $R=lru, $csize=1e3, $pricebits=0, $mytime=1800"
attr iterationvars2 "$net=abilene_cost, $rep=8, $priceratiovalue=10, $weights=0.333_0.333_0.334, $lambda=100, $a=1, $ctlg=1e5, $F=spr, $ttl=1000, $D=fix0.01, $xi=1, $R=lru, $csize=1e3, $pricebits=0, $mytime=1800, $repetition=0"
attr lambda 100
attr measurement "$net=abilene_cost, $rep=8, $priceratiovalue=10, $weights=0.333_0.333_0.334, $lambda=100, $a=1, $ctlg=1e5, $F=spr, $ttl=1000, $D=fix0.01, $xi=1, $R=lru, $csize=1e3, $pricebits=0, $mytime=1800"
attr mytime 1800
attr net abilene_cost
attr network "networks.${net=geant_cost, abilene_cost}_network"
attr pricebits 0
attr priceratiovalue 10
attr processid 16796
attr rep 8
attr repetition 0
attr replication #0
attr resultdir results
attr runnumber 30
attr seedset 8
attr ttl 1000
attr weights 0.333_0.333_0.334
attr xi 1

scalar . 	a 	1
scalar . 	csize 	1e3
scalar . 	ctlg 	1e5
scalar . 	lambda 	100
scalar . 	mytime 	1800
scalar . 	pricebits 	0
scalar . 	priceratiovalue 	10
scalar . 	rep 	8
scalar . 	ttl 	1000
scalar . 	xi 	1
scalar abilene_cost_network.content_distribution 	repo-0 	11
scalar abilene_cost_network.content_distribution 	repo-1 	12
scalar abilene_cost_network.content_distribution 	repo-2 	13
scalar abilene_cost_network.content_distribution 	client-0 	5
scalar abilene_cost_network.content_distribution 	client-1 	0
scalar abilene_cost_network.content_distribution 	client-2 	9
scalar abilene_cost_network.content_distribution 	repo-0_card 	33481
scalar abilene_cost_network.content_distribution 	repo-1_card 	33257
scalar abilene_cost_network.content_distribution 	repo-2_card 	33262
scalar abilene_cost_network.statistics 	repo_popularity[0] 	0.31048403425595
scalar abilene_cost_network.statistics 	repo_popularity[1] 	0.33358081359224
scalar abilene_cost_network.statistics 	repo_popularity[2] 	0.35593515215181
scalar abilene_cost_network.statistics 	stabilization_time 	438.7
scalar abilene_cost_network.node[1].face$o[4].channel 	price[1] 	0
scalar abilene_cost_network.node[1].face$o[4].channel 	represented_price[1] 	0
scalar abilene_cost_network.node[7].face$o[4].channel 	price[7] 	0
scalar abilene_cost_network.node[7].face$o[4].channel 	represented_price[7] 	0
scalar abilene_cost_network.node[10].face$o[4].channel 	price[10] 	0
scalar abilene_cost_network.node[10].face$o[4].channel 	represented_price[10] 	0
scalar abilene_cost_network.node[11].face$o[1].channel 	price[11] 	0
scalar abilene_cost_network.node[11].face$o[1].channel 	represented_price[11] 	0
scalar abilene_cost_network.node[12].face$o[1].channel 	price[12] 	1
scalar abilene_cost_network.node[12].face$o[1].channel 	represented_price[12] 	1
scalar abilene_cost_network.node[13].face$o[1].channel 	price[13] 	10
scalar abilene_cost_network.node[13].face$o[1].channel 	represented_price[13] 	10
scalar abilene_cost_network.statistics 	p_hit 	0.17081502082682
scalar abilene_cost_network.statistics 	interests 	111977.85714286
scalar abilene_cost_network.statistics 	data 	73378.428571429
scalar abilene_cost_network.statistics 	hdistance 	2.405010709792
scalar abilene_cost_network.statistics 	avg_time 	0.009112355379
scalar abilene_cost_network.statistics 	downloads 	540322
scalar abilene_cost_network.statistics 	total_cost 	1011994
scalar abilene_cost_network.statistics 	total_replicas 	100000
scalar abilene_cost_network.statistics 	inner_hit 	0.49560262214013
scalar abilene_cost_network.statistics 	interests_sent 	540390
scalar abilene_cost_network.node[0].core_layer 	interests[0] 	180110
scalar abilene_cost_network.node[0].core_layer 	data[0] 	109692
scalar abilene_cost_network.node[0].core_layer 	repo_int[0] 	272537
scalar abilene_cost_network.node[0].content_store 	p_hit[0] 	0.39081672311365
scalar abilene_cost_network.node[0].content_store 	hits[0] 	70390
scalar abilene_cost_network.node[0].content_store 	misses[0] 	109720
scalar abilene_cost_network.node[0].content_store 	decision_yes[0] 	1141
scalar abilene_cost_network.node[0].content_store 	decision_no[0] 	108551
scalar abilene_cost_network.node[0].content_store 	decision_ratio[0] 	0.010401852459614
scalar abilene_cost_network.node[1].core_layer 	interests[1] 	170111
scalar abilene_cost_network.node[1].core_layer 	data[1] 	158519
scalar abilene_cost_network.node[1].content_store 	p_hit[1] 	0.068143741439413
scalar abilene_cost_network.node[1].content_store 	hits[1] 	11592
scalar abilene_cost_network.node[1].content_store 	misses[1] 	158519
scalar abilene_cost_network.node[1].content_store 	decision_yes[1] 	1558
scalar abilene_cost_network.node[1].content_store 	decision_no[1] 	156961
scalar abilene_cost_network.node[1].content_store 	decision_ratio[1] 	0.0098284748200531
scalar abilene_cost_network.node[2].core_layer 	interests[2] 	99247
scalar abilene_cost_network.node[2].core_layer 	data[2] 	95663
scalar abilene_cost_network.node[2].content_store 	p_hit[2] 	0.036101846907211
scalar abilene_cost_network.node[2].content_store 	hits[2] 	3583
scalar abilene_cost_network.node[2].content_store 	misses[2] 	95664
scalar abilene_cost_network.node[2].content_store 	decision_yes[2] 	954
scalar abilene_cost_network.node[2].content_store 	decision_no[2] 	94709
scalar abilene_cost_network.node[2].content_store 	decision_ratio[2] 	0.0099725076570879
scalar abilene_cost_network.node[3].core_layer 	interests[3] 	99942
scalar abilene_cost_network.node[3].core_layer 	data[3] 	95977
scalar abilene_cost_network.node[3].content_store 	p_hit[3] 	0.039663004542635
scalar abilene_cost_network.node[3].content_store 	hits[3] 	3964
scalar abilene_cost_network.node[3].content_store 	misses[3] 	95978
scalar abilene_cost_network.node[3].content_store 	decision_yes[3] 	982
scalar abilene_cost_network.node[3].content_store 	decision_no[3] 	94995
scalar abilene_cost_network.node[3].content_store 	decision_ratio[3] 	0.010231617991811
scalar abilene_cost_network.node[4].core_layer 	interests[4] 	71908
scalar abilene_cost_network.node[4].core_layer 	data[4] 	66008
scalar abilene_cost_network.node[4].content_store 	p_hit[4] 	0.082035378539245
scalar abilene_cost_network.node[4].content_store 	hits[4] 	5899
scalar abilene_cost_network.node[4].content_store 	misses[4] 	66009
scalar abilene_cost_network.node[4].content_store 	decision_yes[4] 	668
scalar abilene_cost_network.node[4].content_store 	decision_no[4] 	65340
scalar abilene_cost_network.node[4].content_store 	decision_ratio[4] 	0.010119985456308
scalar abilene_cost_network.node[5].core_layer 	interests[5] 	180493
scalar abilene_cost_network.node[5].core_layer 	data[5] 	110966
scalar abilene_cost_network.node[5].content_store 	p_hit[5] 	0.38509526685245
scalar abilene_cost_network.node[5].content_store 	hits[5] 	69507
scalar abilene_cost_network.node[5].content_store 	misses[5] 	110986
scalar abilene_cost_network.node[5].content_store 	decision_yes[5] 	1150
scalar abilene_cost_network.node[5].content_store 	decision_no[5] 	109816
scalar abilene_cost_network.node[5].content_store 	decision_ratio[5] 	0.010363534776418
scalar abilene_cost_network.node[6].core_layer 	interests[6] 	39059
scalar abilene_cost_network.node[6].core_layer 	data[6] 	32991
scalar abilene_cost_network.node[6].content_store 	p_hit[6] 	0.15535471978289
scalar abilene_cost_network.node[6].content_store 	hits[6] 	6068
scalar abilene_cost_network.node[6].content_store 	misses[6] 	32991
scalar abilene_cost_network.node[6].content_store 	decision_yes[6] 	335
scalar abilene_cost_network.node[6].content_store 	decision_no[6] 	32656
scalar abilene_cost_network.node[6].content_store 	decision_ratio[6] 	0.010154284501834
scalar abilene_cost_network.node[7].core_layer 	interests[7] 	97928
scalar abilene_cost_network.node[7].core_layer 	data[7] 	88434
scalar abilene_cost_network.node[7].content_store 	p_hit[7] 	0.096948778694551
scalar abilene_cost_network.node[7].content_store 	hits[7] 	9494
scalar abilene_cost_network.node[7].content_store 	misses[7] 	88434
scalar abilene_cost_network.node[7].content_store 	decision_yes[7] 	858
scalar abilene_cost_network.node[7].content_store 	decision_no[7] 	87576
scalar abilene_cost_network.node[7].content_store 	decision_ratio[7] 	0.0097021507564964
scalar abilene_cost_network.node[8].core_layer 	interests[8] 	37328
scalar abilene_cost_network.node[8].core_layer 	data[8] 	32526
scalar abilene_cost_network.node[8].content_store 	p_hit[8] 	0.12864337762538
scalar abilene_cost_network.node[8].content_store 	hits[8] 	4802
scalar abilene_cost_network.node[8].content_store 	misses[8] 	32526
scalar abilene_cost_network.node[8].content_store 	decision_yes[8] 	320
scalar abilene_cost_network.node[8].content_store 	decision_no[8] 	32206
scalar abilene_cost_network.node[8].content_store 	decision_ratio[8] 	0.0098382832195782
scalar abilene_cost_network.node[9].core_layer 	interests[9] 	179787
scalar abilene_cost_network.node[9].core_layer 	data[9] 	109783
scalar abilene_cost_network.node[9].content_store 	p_hit[9] 	0.389260625073
scalar abilene_cost_network.node[9].content_store 	hits[9] 	69984
scalar abilene_cost_network.node[9].content_store 	misses[9] 	109803
scalar abilene_cost_network.node[9].content_store 	decision_yes[9] 	1141
scalar abilene_cost_network.node[9].content_store 	decision_no[9] 	108642
scalar abilene_cost_network.node[9].content_store 	decision_ratio[9] 	0.010393230281555
scalar abilene_cost_network.node[10].core_layer 	interests[10] 	139240
scalar abilene_cost_network.node[10].core_layer 	data[10] 	126739
scalar abilene_cost_network.node[10].content_store 	p_hit[10] 	0.089787417408791
scalar abilene_cost_network.node[10].content_store 	hits[10] 	12502
scalar abilene_cost_network.node[10].content_store 	misses[10] 	126738
scalar abilene_cost_network.node[10].content_store 	decision_yes[10] 	1244
scalar abilene_cost_network.node[10].content_store 	decision_no[10] 	125495
scalar abilene_cost_network.node[10].content_store 	decision_ratio[10] 	0.0098154474944571
scalar abilene_cost_network.node[11].core_layer 	interests[11] 	91747
scalar abilene_cost_network.node[11].core_layer 	repo_load[11] 	91747
scalar abilene_cost_network.node[11].core_layer 	data[11] 	0
scalar abilene_cost_network.node[11].content_store 	p_hit[11] 	0
scalar abilene_cost_network.node[11].content_store 	hits[11] 	0
scalar abilene_cost_network.node[11].content_store 	misses[11] 	91747
scalar abilene_cost_network.node[11].content_store 	decision_yes[11] 	0
scalar abilene_cost_network.node[11].content_store 	decision_no[11] 	91747
scalar abilene_cost_network.node[11].content_store 	decision_ratio[11] 	0
scalar abilene_cost_network.node[12].core_layer 	interests[12] 	88434
scalar abilene_cost_network.node[12].core_layer 	repo_load[12] 	88434
scalar abilene_cost_network.node[12].core_layer 	data[12] 	0
scalar abilene_cost_network.node[12].content_store 	p_hit[12] 	0
scalar abilene_cost_network.node[12].content_store 	hits[12] 	0
scalar abilene_cost_network.node[12].content_store 	misses[12] 	88434
scalar abilene_cost_network.node[12].content_store 	decision_yes[12] 	0
scalar abilene_cost_network.node[12].content_store 	decision_no[12] 	88434
scalar abilene_cost_network.node[12].content_store 	decision_ratio[12] 	0
scalar abilene_cost_network.node[13].core_layer 	interests[13] 	92356
scalar abilene_cost_network.node[13].core_layer 	repo_load[13] 	92356
scalar abilene_cost_network.node[13].core_layer 	data[13] 	0
scalar abilene_cost_network.node[13].content_store 	p_hit[13] 	0
scalar abilene_cost_network.node[13].content_store 	hits[13] 	0
scalar abilene_cost_network.node[13].content_store 	misses[13] 	92356
scalar abilene_cost_network.node[13].content_store 	decision_yes[13] 	0
scalar abilene_cost_network.node[13].content_store 	decision_no[13] 	92356
scalar abilene_cost_network.node[13].content_store 	decision_ratio[13] 	0
scalar abilene_cost_network.client[0] 	hdistance[0] 	2.2121033751291
scalar abilene_cost_network.client[0] 	downloads[0] 	180082
scalar abilene_cost_network.client[0] 	avg_time[0] 	0.008927076865
scalar abilene_cost_network.client[0] 	interests_sent[0] 	180110
scalar abilene_cost_network.client[5] 	hdistance[5] 	2.9950518914187
scalar abilene_cost_network.client[5] 	downloads[5] 	180473
scalar abilene_cost_network.client[5] 	avg_time[5] 	0.010680671053
scalar abilene_cost_network.client[5] 	interests_sent[5] 	180493
scalar abilene_cost_network.client[9] 	hdistance[9] 	2.007876862828
scalar abilene_cost_network.client[9] 	downloads[9] 	179767
scalar abilene_cost_network.client[9] 	avg_time[9] 	0.007729318219
scalar abilene_cost_network.client[9] 	interests_sent[9] 	179787
