version 2
run General-38-20140626-18:04:14-10919
attr D fix0.01
attr F spr
attr R lru
attr a 1
attr configname General
attr csize 1e3
attr ctlg 1e5
attr datetime 20140626-18:04:14
attr experiment General
attr inifile omnetpp.ini
attr iterationvars "$net=abilene_cost, $rep=5, $priceratiovalue=10, $weights=0.333_0.333_0.334, $lambda=100, $a=1, $ctlg=1e5, $F=spr, $ttl=1000, $D=fix0.01, $xi=1, $R=lru, $csize=1e3, $pricebits=0, $mytime=1800"
attr iterationvars2 "$net=abilene_cost, $rep=5, $priceratiovalue=10, $weights=0.333_0.333_0.334, $lambda=100, $a=1, $ctlg=1e5, $F=spr, $ttl=1000, $D=fix0.01, $xi=1, $R=lru, $csize=1e3, $pricebits=0, $mytime=1800, $repetition=0"
attr lambda 100
attr measurement "$net=abilene_cost, $rep=5, $priceratiovalue=10, $weights=0.333_0.333_0.334, $lambda=100, $a=1, $ctlg=1e5, $F=spr, $ttl=1000, $D=fix0.01, $xi=1, $R=lru, $csize=1e3, $pricebits=0, $mytime=1800"
attr mytime 1800
attr net abilene_cost
attr network "networks.${net=geant_cost, abilene_cost}_network"
attr pricebits 0
attr priceratiovalue 10
attr processid 10919
attr rep 5
attr repetition 0
attr replication #0
attr resultdir results
attr runnumber 38
attr seedset 5
attr ttl 1000
attr weights 0.333_0.333_0.334
attr xi 1

scalar . 	a 	1
scalar . 	csize 	1e3
scalar . 	ctlg 	1e5
scalar . 	lambda 	100
scalar . 	mytime 	1800
scalar . 	pricebits 	0
scalar . 	priceratiovalue 	10
scalar . 	rep 	5
scalar . 	ttl 	1000
scalar . 	xi 	1
scalar abilene_cost_network.content_distribution 	repo-0 	11
scalar abilene_cost_network.content_distribution 	repo-1 	12
scalar abilene_cost_network.content_distribution 	repo-2 	13
scalar abilene_cost_network.content_distribution 	client-0 	5
scalar abilene_cost_network.content_distribution 	client-1 	0
scalar abilene_cost_network.content_distribution 	client-2 	9
scalar abilene_cost_network.content_distribution 	repo-0_card 	33102
scalar abilene_cost_network.content_distribution 	repo-1_card 	33495
scalar abilene_cost_network.content_distribution 	repo-2_card 	33403
scalar abilene_cost_network.statistics 	repo_popularity[0] 	0.44346789261525
scalar abilene_cost_network.statistics 	repo_popularity[1] 	0.29134602320581
scalar abilene_cost_network.statistics 	repo_popularity[2] 	0.26518608417894
scalar abilene_cost_network.statistics 	stabilization_time 	531.7
scalar abilene_cost_network.node[1].face$o[4].channel 	price[1] 	0
scalar abilene_cost_network.node[1].face$o[4].channel 	represented_price[1] 	0
scalar abilene_cost_network.node[7].face$o[4].channel 	price[7] 	0
scalar abilene_cost_network.node[7].face$o[4].channel 	represented_price[7] 	0
scalar abilene_cost_network.node[10].face$o[4].channel 	price[10] 	0
scalar abilene_cost_network.node[10].face$o[4].channel 	represented_price[10] 	0
scalar abilene_cost_network.node[11].face$o[1].channel 	price[11] 	0
scalar abilene_cost_network.node[11].face$o[1].channel 	represented_price[11] 	0
scalar abilene_cost_network.node[12].face$o[1].channel 	price[12] 	1
scalar abilene_cost_network.node[12].face$o[1].channel 	represented_price[12] 	1
scalar abilene_cost_network.node[13].face$o[1].channel 	price[13] 	10
scalar abilene_cost_network.node[13].face$o[1].channel 	represented_price[13] 	10
scalar abilene_cost_network.statistics 	p_hit 	0.17137116114402
scalar abilene_cost_network.statistics 	interests 	111691.57142857
scalar abilene_cost_network.statistics 	data 	73105.571428571
scalar abilene_cost_network.statistics 	hdistance 	2.3981289069499
scalar abilene_cost_network.statistics 	avg_time 	0.009094496516
scalar abilene_cost_network.statistics 	downloads 	540119
scalar abilene_cost_network.statistics 	total_cost 	1019591
scalar abilene_cost_network.statistics 	total_replicas 	100000
scalar abilene_cost_network.statistics 	inner_hit 	0.49613325952244
scalar abilene_cost_network.statistics 	interests_sent 	540205
scalar abilene_cost_network.node[0].core_layer 	interests[0] 	180452
scalar abilene_cost_network.node[0].core_layer 	data[0] 	109829
scalar abilene_cost_network.node[0].core_layer 	repo_int[0] 	272148
scalar abilene_cost_network.node[0].content_store 	p_hit[0] 	0.39120652583513
scalar abilene_cost_network.node[0].content_store 	hits[0] 	70594
scalar abilene_cost_network.node[0].content_store 	misses[0] 	109858
scalar abilene_cost_network.node[0].content_store 	decision_yes[0] 	1126
scalar abilene_cost_network.node[0].content_store 	decision_no[0] 	108703
scalar abilene_cost_network.node[0].content_store 	decision_ratio[0] 	0.010252301304756
scalar abilene_cost_network.node[1].core_layer 	interests[1] 	171122
scalar abilene_cost_network.node[1].core_layer 	data[1] 	159286
scalar abilene_cost_network.node[1].content_store 	p_hit[1] 	0.069167027033345
scalar abilene_cost_network.node[1].content_store 	hits[1] 	11836
scalar abilene_cost_network.node[1].content_store 	misses[1] 	159286
scalar abilene_cost_network.node[1].content_store 	decision_yes[1] 	1601
scalar abilene_cost_network.node[1].content_store 	decision_no[1] 	157685
scalar abilene_cost_network.node[1].content_store 	decision_ratio[1] 	0.010051103047349
scalar abilene_cost_network.node[2].core_layer 	interests[2] 	99157
scalar abilene_cost_network.node[2].core_layer 	data[2] 	95024
scalar abilene_cost_network.node[2].content_store 	p_hit[2] 	0.041681373982674
scalar abilene_cost_network.node[2].content_store 	hits[2] 	4133
scalar abilene_cost_network.node[2].content_store 	misses[2] 	95024
scalar abilene_cost_network.node[2].content_store 	decision_yes[2] 	981
scalar abilene_cost_network.node[2].content_store 	decision_no[2] 	94043
scalar abilene_cost_network.node[2].content_store 	decision_ratio[2] 	0.010323707694898
scalar abilene_cost_network.node[3].core_layer 	interests[3] 	99843
scalar abilene_cost_network.node[3].core_layer 	data[3] 	95945
scalar abilene_cost_network.node[3].content_store 	p_hit[3] 	0.039041294832888
scalar abilene_cost_network.node[3].content_store 	hits[3] 	3898
scalar abilene_cost_network.node[3].content_store 	misses[3] 	95945
scalar abilene_cost_network.node[3].content_store 	decision_yes[3] 	951
scalar abilene_cost_network.node[3].content_store 	decision_no[3] 	94994
scalar abilene_cost_network.node[3].content_store 	decision_ratio[3] 	0.0099119287091563
scalar abilene_cost_network.node[4].core_layer 	interests[4] 	73845
scalar abilene_cost_network.node[4].core_layer 	data[4] 	66775
scalar abilene_cost_network.node[4].content_store 	p_hit[4] 	0.095741079287697
scalar abilene_cost_network.node[4].content_store 	hits[4] 	7070
scalar abilene_cost_network.node[4].content_store 	misses[4] 	66775
scalar abilene_cost_network.node[4].content_store 	decision_yes[4] 	659
scalar abilene_cost_network.node[4].content_store 	decision_no[4] 	66116
scalar abilene_cost_network.node[4].content_store 	decision_ratio[4] 	0.0098689629352303
scalar abilene_cost_network.node[5].core_layer 	interests[5] 	180360
scalar abilene_cost_network.node[5].core_layer 	data[5] 	109573
scalar abilene_cost_network.node[5].content_store 	p_hit[5] 	0.39228764692837
scalar abilene_cost_network.node[5].content_store 	hits[5] 	70753
scalar abilene_cost_network.node[5].content_store 	misses[5] 	109607
scalar abilene_cost_network.node[5].content_store 	decision_yes[5] 	1074
scalar abilene_cost_network.node[5].content_store 	decision_no[5] 	108499
scalar abilene_cost_network.node[5].content_store 	decision_ratio[5] 	0.0098016847216011
scalar abilene_cost_network.node[6].core_layer 	interests[6] 	35728
scalar abilene_cost_network.node[6].core_layer 	data[6] 	31299
scalar abilene_cost_network.node[6].content_store 	p_hit[6] 	0.12396439767129
scalar abilene_cost_network.node[6].content_store 	hits[6] 	4429
scalar abilene_cost_network.node[6].content_store 	misses[6] 	31299
scalar abilene_cost_network.node[6].content_store 	decision_yes[6] 	311
scalar abilene_cost_network.node[6].content_store 	decision_no[6] 	30988
scalar abilene_cost_network.node[6].content_store 	decision_ratio[6] 	0.0099364196939199
scalar abilene_cost_network.node[7].core_layer 	interests[7] 	95259
scalar abilene_cost_network.node[7].core_layer 	data[7] 	87091
scalar abilene_cost_network.node[7].content_store 	p_hit[7] 	0.085745178933224
scalar abilene_cost_network.node[7].content_store 	hits[7] 	8168
scalar abilene_cost_network.node[7].content_store 	misses[7] 	87091
scalar abilene_cost_network.node[7].content_store 	decision_yes[7] 	842
scalar abilene_cost_network.node[7].content_store 	decision_no[7] 	86249
scalar abilene_cost_network.node[7].content_store 	decision_ratio[7] 	0.0096680483632063
scalar abilene_cost_network.node[8].core_layer 	interests[8] 	36491
scalar abilene_cost_network.node[8].core_layer 	data[8] 	31990
scalar abilene_cost_network.node[8].content_store 	p_hit[8] 	0.12334548244773
scalar abilene_cost_network.node[8].content_store 	hits[8] 	4501
scalar abilene_cost_network.node[8].content_store 	misses[8] 	31990
scalar abilene_cost_network.node[8].content_store 	decision_yes[8] 	324
scalar abilene_cost_network.node[8].content_store 	decision_no[8] 	31666
scalar abilene_cost_network.node[8].content_store 	decision_ratio[8] 	0.010128165051579
scalar abilene_cost_network.node[9].core_layer 	interests[9] 	179393
scalar abilene_cost_network.node[9].core_layer 	data[9] 	109377
scalar abilene_cost_network.node[9].content_store 	p_hit[9] 	0.39016572552998
scalar abilene_cost_network.node[9].content_store 	hits[9] 	69993
scalar abilene_cost_network.node[9].content_store 	misses[9] 	109400
scalar abilene_cost_network.node[9].content_store 	decision_yes[9] 	1097
scalar abilene_cost_network.node[9].content_store 	decision_no[9] 	108280
scalar abilene_cost_network.node[9].content_store 	decision_ratio[9] 	0.010029530888578
scalar abilene_cost_network.node[10].core_layer 	interests[10] 	139884
scalar abilene_cost_network.node[10].core_layer 	data[10] 	127289
scalar abilene_cost_network.node[10].content_store 	p_hit[10] 	0.090038889365474
scalar abilene_cost_network.node[10].content_store 	hits[10] 	12595
scalar abilene_cost_network.node[10].content_store 	misses[10] 	127289
scalar abilene_cost_network.node[10].content_store 	decision_yes[10] 	1260
scalar abilene_cost_network.node[10].content_store 	decision_no[10] 	126029
scalar abilene_cost_network.node[10].content_store 	decision_ratio[10] 	0.0098987343761048
scalar abilene_cost_network.node[11].core_layer 	interests[11] 	91807
scalar abilene_cost_network.node[11].core_layer 	repo_load[11] 	91807
scalar abilene_cost_network.node[11].core_layer 	data[11] 	0
scalar abilene_cost_network.node[11].content_store 	p_hit[11] 	0
scalar abilene_cost_network.node[11].content_store 	hits[11] 	0
scalar abilene_cost_network.node[11].content_store 	misses[11] 	91807
scalar abilene_cost_network.node[11].content_store 	decision_yes[11] 	0
scalar abilene_cost_network.node[11].content_store 	decision_no[11] 	91807
scalar abilene_cost_network.node[11].content_store 	decision_ratio[11] 	0
scalar abilene_cost_network.node[12].core_layer 	interests[12] 	87091
scalar abilene_cost_network.node[12].core_layer 	repo_load[12] 	87091
scalar abilene_cost_network.node[12].core_layer 	data[12] 	0
scalar abilene_cost_network.node[12].content_store 	p_hit[12] 	0
scalar abilene_cost_network.node[12].content_store 	hits[12] 	0
scalar abilene_cost_network.node[12].content_store 	misses[12] 	87091
scalar abilene_cost_network.node[12].content_store 	decision_yes[12] 	0
scalar abilene_cost_network.node[12].content_store 	decision_no[12] 	87091
scalar abilene_cost_network.node[12].content_store 	decision_ratio[12] 	0
scalar abilene_cost_network.node[13].core_layer 	interests[13] 	93250
scalar abilene_cost_network.node[13].core_layer 	repo_load[13] 	93250
scalar abilene_cost_network.node[13].core_layer 	data[13] 	0
scalar abilene_cost_network.node[13].content_store 	p_hit[13] 	0
scalar abilene_cost_network.node[13].content_store 	hits[13] 	0
scalar abilene_cost_network.node[13].content_store 	misses[13] 	93250
scalar abilene_cost_network.node[13].content_store 	decision_yes[13] 	0
scalar abilene_cost_network.node[13].content_store 	decision_no[13] 	93250
scalar abilene_cost_network.node[13].content_store 	decision_ratio[13] 	0
scalar abilene_cost_network.client[0] 	hdistance[0] 	2.205500407376
scalar abilene_cost_network.client[0] 	downloads[0] 	180423
scalar abilene_cost_network.client[0] 	avg_time[0] 	0.008870451433
scalar abilene_cost_network.client[0] 	interests_sent[0] 	180452
scalar abilene_cost_network.client[5] 	hdistance[5] 	2.9785166864457
scalar abilene_cost_network.client[5] 	downloads[5] 	180326
scalar abilene_cost_network.client[5] 	avg_time[5] 	0.010722410294
scalar abilene_cost_network.client[5] 	interests_sent[5] 	180360
scalar abilene_cost_network.client[9] 	hdistance[9] 	2.0103696270279
scalar abilene_cost_network.client[9] 	downloads[9] 	179370
scalar abilene_cost_network.client[9] 	avg_time[9] 	0.007690627823
scalar abilene_cost_network.client[9] 	interests_sent[9] 	179393
