version 2
run General-452-20140502-10:52:36-13755
attr D costprob0.001
attr F nrr
attr R lru
attr a 1
attr configname General
attr csize 1e3
attr ctlg 1e5
attr datetime 20140502-10:52:36
attr experiment General
attr inifile omnetpp.ini
attr iterationvars "$net=three_caches_scenario_3_links, $rep=4, $priceratiovalue=1, $weights=0.333_0.333_0.334, $a=1, $ctlg=1e5, $F=nrr, $ttl=1000, $D=costprob0.001, $xi=1, $R=lru, $csize=1e3"
attr iterationvars2 "$net=three_caches_scenario_3_links, $rep=4, $priceratiovalue=1, $weights=0.333_0.333_0.334, $a=1, $ctlg=1e5, $F=nrr, $ttl=1000, $D=costprob0.001, $xi=1, $R=lru, $csize=1e3, $repetition=0"
attr measurement "$net=three_caches_scenario_3_links, $rep=4, $priceratiovalue=1, $weights=0.333_0.333_0.334, $a=1, $ctlg=1e5, $F=nrr, $ttl=1000, $D=costprob0.001, $xi=1, $R=lru, $csize=1e3"
attr net three_caches_scenario_3_links
attr network networks.${net=three_caches_scenario_3_links}_network
attr priceratiovalue 1
attr processid 13755
attr rep 4
attr repetition 0
attr replication #0
attr resultdir results
attr runnumber 452
attr seedset 4
attr ttl 1000
attr weights 0.333_0.333_0.334
attr xi 1

scalar . 	a 	1
scalar . 	csize 	1e3
scalar . 	ctlg 	1e5
scalar . 	priceratiovalue 	1
scalar . 	rep 	4
scalar . 	ttl 	1000
scalar . 	xi 	1
scalar three_caches_scenario_3_links_network.content_distribution 	repo-0 	4
scalar three_caches_scenario_3_links_network.content_distribution 	repo-1 	5
scalar three_caches_scenario_3_links_network.content_distribution 	repo-2 	6
scalar three_caches_scenario_3_links_network.content_distribution 	client-0 	0
scalar three_caches_scenario_3_links_network.content_distribution 	repo-0_card 	33584
scalar three_caches_scenario_3_links_network.content_distribution 	repo-1_card 	33055
scalar three_caches_scenario_3_links_network.content_distribution 	repo-2_card 	33361
scalar three_caches_scenario_3_links_network.statistics 	p_hit 	0.1283913938491
scalar three_caches_scenario_3_links_network.statistics 	interests 	64817.428571429
scalar three_caches_scenario_3_links_network.statistics 	data 	39024.857142857
scalar three_caches_scenario_3_links_network.statistics 	hdistance 	1.7966191816027
scalar three_caches_scenario_3_links_network.statistics 	avg_time 	0
scalar three_caches_scenario_3_links_network.statistics 	downloads 	180548
scalar three_caches_scenario_3_links_network.statistics 	total_cost 	51202
scalar three_caches_scenario_3_links_network.statistics 	total_replicas 	100000
scalar three_caches_scenario_3_links_network.statistics 	interests_sent 	180548
scalar three_caches_scenario_3_links_network.node[0].core_layer 	interests[0] 	180548
scalar three_caches_scenario_3_links_network.node[0].core_layer 	data[0] 	150880
scalar three_caches_scenario_3_links_network.node[0].core_layer 	repo_int[0] 	122294
scalar three_caches_scenario_3_links_network.node[0].content_store 	p_hit[0] 	0.16432195316481
scalar three_caches_scenario_3_links_network.node[0].content_store 	hits[0] 	29668
scalar three_caches_scenario_3_links_network.node[0].content_store 	misses[0] 	150880
scalar three_caches_scenario_3_links_network.node[0].content_store 	decision_yes[0] 	80
scalar three_caches_scenario_3_links_network.node[0].content_store 	decision_no[0] 	150800
scalar three_caches_scenario_3_links_network.node[1].core_layer 	interests[1] 	71092
scalar three_caches_scenario_3_links_network.node[1].core_layer 	data[1] 	71092
scalar three_caches_scenario_3_links_network.node[1].content_store 	p_hit[1] 	0
scalar three_caches_scenario_3_links_network.node[1].content_store 	hits[1] 	0
scalar three_caches_scenario_3_links_network.node[1].content_store 	misses[1] 	71092
scalar three_caches_scenario_3_links_network.node[1].content_store 	decision_yes[1] 	0
scalar three_caches_scenario_3_links_network.node[1].content_store 	decision_no[1] 	71092
scalar three_caches_scenario_3_links_network.node[2].core_layer 	interests[2] 	41606
scalar three_caches_scenario_3_links_network.node[2].core_layer 	data[2] 	25570
scalar three_caches_scenario_3_links_network.node[2].content_store 	p_hit[2] 	0.38542517906071
scalar three_caches_scenario_3_links_network.node[2].content_store 	hits[2] 	16036
scalar three_caches_scenario_3_links_network.node[2].content_store 	misses[2] 	25570
scalar three_caches_scenario_3_links_network.node[2].content_store 	decision_yes[2] 	33
scalar three_caches_scenario_3_links_network.node[2].content_store 	decision_no[2] 	25537
scalar three_caches_scenario_3_links_network.node[3].core_layer 	interests[3] 	38182
scalar three_caches_scenario_3_links_network.node[3].core_layer 	data[3] 	25632
scalar three_caches_scenario_3_links_network.node[3].content_store 	p_hit[3] 	0.32868891100519
scalar three_caches_scenario_3_links_network.node[3].content_store 	hits[3] 	12550
scalar three_caches_scenario_3_links_network.node[3].content_store 	misses[3] 	25632
scalar three_caches_scenario_3_links_network.node[3].content_store 	decision_yes[3] 	34
scalar three_caches_scenario_3_links_network.node[3].content_store 	decision_no[3] 	25598
scalar three_caches_scenario_3_links_network.node[4].core_layer 	interests[4] 	71092
scalar three_caches_scenario_3_links_network.node[4].core_layer 	repo_load[4] 	71092
scalar three_caches_scenario_3_links_network.node[4].core_layer 	data[4] 	0
scalar three_caches_scenario_3_links_network.node[4].content_store 	p_hit[4] 	0
scalar three_caches_scenario_3_links_network.node[4].content_store 	hits[4] 	0
scalar three_caches_scenario_3_links_network.node[4].content_store 	misses[4] 	71092
scalar three_caches_scenario_3_links_network.node[4].content_store 	decision_yes[4] 	0
scalar three_caches_scenario_3_links_network.node[4].content_store 	decision_no[4] 	71092
scalar three_caches_scenario_3_links_network.node[5].core_layer 	interests[5] 	25570
scalar three_caches_scenario_3_links_network.node[5].core_layer 	repo_load[5] 	25570
scalar three_caches_scenario_3_links_network.node[5].core_layer 	data[5] 	0
scalar three_caches_scenario_3_links_network.node[5].content_store 	p_hit[5] 	0
scalar three_caches_scenario_3_links_network.node[5].content_store 	hits[5] 	0
scalar three_caches_scenario_3_links_network.node[5].content_store 	misses[5] 	25570
scalar three_caches_scenario_3_links_network.node[5].content_store 	decision_yes[5] 	0
scalar three_caches_scenario_3_links_network.node[5].content_store 	decision_no[5] 	25570
scalar three_caches_scenario_3_links_network.node[6].core_layer 	interests[6] 	25632
scalar three_caches_scenario_3_links_network.node[6].core_layer 	repo_load[6] 	25632
scalar three_caches_scenario_3_links_network.node[6].core_layer 	data[6] 	0
scalar three_caches_scenario_3_links_network.node[6].content_store 	p_hit[6] 	0
scalar three_caches_scenario_3_links_network.node[6].content_store 	hits[6] 	0
scalar three_caches_scenario_3_links_network.node[6].content_store 	misses[6] 	25632
scalar three_caches_scenario_3_links_network.node[6].content_store 	decision_yes[6] 	0
scalar three_caches_scenario_3_links_network.node[6].content_store 	decision_no[6] 	25632
scalar three_caches_scenario_3_links_network.client[0] 	hdistance[0] 	1.7966191816027
scalar three_caches_scenario_3_links_network.client[0] 	downloads[0] 	180548
scalar three_caches_scenario_3_links_network.client[0] 	avg_time[0] 	0
scalar three_caches_scenario_3_links_network.client[0] 	interests_sent[0] 	180548
