version 2
run General-2017-20140423-19:22:59-27963
attr D lce
attr F nrr
attr R lru
attr a 0
attr configname General
attr csize 2
attr ctlg 10^3
attr datetime 20140423-19:22:59
attr experiment General
attr inifile omnetpp.ini
attr iterationvars "$net=simple_scenario, $rep=6, $priceratiovalue=7, $a=0, $ctlg=10^3, $F=nrr, $ttl=1000, $D=lce, $R=lru, $csize=2"
attr iterationvars2 "$net=simple_scenario, $rep=6, $priceratiovalue=7, $a=0, $ctlg=10^3, $F=nrr, $ttl=1000, $D=lce, $R=lru, $csize=2, $repetition=0"
attr measurement "$net=simple_scenario, $rep=6, $priceratiovalue=7, $a=0, $ctlg=10^3, $F=nrr, $ttl=1000, $D=lce, $R=lru, $csize=2"
attr net simple_scenario
attr network networks.${net=simple_scenario}_network
attr priceratiovalue 7
attr processid 27963
attr rep 6
attr repetition 0
attr replication #0
attr resultdir results
attr runnumber 2017
attr seedset 6
attr ttl 1000

scalar . 	a 	0
scalar . 	csize 	2
scalar . 	priceratiovalue 	7
scalar . 	rep 	6
scalar . 	ttl 	1000
scalar simple_scenario_network.content_distribution 	repo-0 	3
scalar simple_scenario_network.content_distribution 	repo-1 	4
scalar simple_scenario_network.content_distribution 	client-0 	0
scalar simple_scenario_network.content_distribution 	repo-0_card 	495
scalar simple_scenario_network.content_distribution 	repo-1_card 	505
scalar simple_scenario_network.statistics 	p_hit 	0.0013224769214812
scalar simple_scenario_network.statistics 	interests 	107979.2
scalar simple_scenario_network.statistics 	data 	71914.2
scalar simple_scenario_network.statistics 	hdistance 	2.9900568418134
scalar simple_scenario_network.statistics 	avg_time 	0.001999761503
scalar simple_scenario_network.statistics 	downloads 	180325
scalar simple_scenario_network.statistics 	total_cost 	90420
scalar simple_scenario_network.node[0].core_layer 	interests[0] 	180325
scalar simple_scenario_network.node[0].core_layer 	data[0] 	179960
scalar simple_scenario_network.node[0].core_layer 	repo_int[0] 	179611
scalar simple_scenario_network.node[0].content_store 	p_hit[0] 	0.0020241231110495
scalar simple_scenario_network.node[0].content_store 	hits[0] 	365
scalar simple_scenario_network.node[0].content_store 	misses[0] 	179960
scalar simple_scenario_network.node[1].core_layer 	interests[1] 	89165
scalar simple_scenario_network.node[1].core_layer 	data[1] 	88985
scalar simple_scenario_network.node[1].content_store 	p_hit[1] 	0.0020187293220434
scalar simple_scenario_network.node[1].content_store 	hits[1] 	180
scalar simple_scenario_network.node[1].content_store 	misses[1] 	88985
scalar simple_scenario_network.node[2].core_layer 	interests[2] 	90795
scalar simple_scenario_network.node[2].core_layer 	data[2] 	90626
scalar simple_scenario_network.node[2].content_store 	p_hit[2] 	0.0018613359766507
scalar simple_scenario_network.node[2].content_store 	hits[2] 	169
scalar simple_scenario_network.node[2].content_store 	misses[2] 	90626
scalar simple_scenario_network.node[3].core_layer 	interests[3] 	88985
scalar simple_scenario_network.node[3].core_layer 	repo_load[3] 	88985
scalar simple_scenario_network.node[3].core_layer 	data[3] 	0
scalar simple_scenario_network.node[3].content_store 	p_hit[3] 	0
scalar simple_scenario_network.node[3].content_store 	hits[3] 	0
scalar simple_scenario_network.node[3].content_store 	misses[3] 	88985
scalar simple_scenario_network.node[4].core_layer 	interests[4] 	90626
scalar simple_scenario_network.node[4].core_layer 	repo_load[4] 	90626
scalar simple_scenario_network.node[4].core_layer 	data[4] 	0
scalar simple_scenario_network.node[4].content_store 	p_hit[4] 	0
scalar simple_scenario_network.node[4].content_store 	hits[4] 	0
scalar simple_scenario_network.node[4].content_store 	misses[4] 	90626
scalar simple_scenario_network.client[0] 	hdistance[0] 	2.9900568418134
scalar simple_scenario_network.client[0] 	downloads[0] 	180325
scalar simple_scenario_network.client[0] 	avg_time[0] 	0.001999761503
