version 2
run General-657-20140422-19:52:37-27396
attr D fix0.01
attr F nrr
attr R lru
attr a 1.2
attr configname General
attr csize 10
attr ctlg 10^3
attr datetime 20140422-19:52:37
attr experiment General
attr inifile omnetpp.ini
attr iterationvars "$net=simple_scenario, $rep=6, $priceratiovalue=5, $a=1.2, $ctlg=10^3, $F=nrr, $ttl=1000, $D=fix0.01, $R=lru, $csize=10"
attr iterationvars2 "$net=simple_scenario, $rep=6, $priceratiovalue=5, $a=1.2, $ctlg=10^3, $F=nrr, $ttl=1000, $D=fix0.01, $R=lru, $csize=10, $repetition=0"
attr measurement "$net=simple_scenario, $rep=6, $priceratiovalue=5, $a=1.2, $ctlg=10^3, $F=nrr, $ttl=1000, $D=fix0.01, $R=lru, $csize=10"
attr net simple_scenario
attr network networks.${net=simple_scenario}_network
attr priceratiovalue 5
attr processid 27396
attr rep 6
attr repetition 0
attr replication #0
attr resultdir results
attr runnumber 657
attr seedset 6
attr ttl 1000

scalar . 	a 	1.2
scalar . 	csize 	10
scalar . 	priceratiovalue 	5
scalar . 	rep 	6
scalar . 	ttl 	1000
scalar simple_scenario_network.content_distribution 	repo-0 	3
scalar simple_scenario_network.content_distribution 	repo-1 	4
scalar simple_scenario_network.content_distribution 	client-0 	0
scalar simple_scenario_network.content_distribution 	repo-0_card 	495
scalar simple_scenario_network.content_distribution 	repo-1_card 	505
scalar simple_scenario_network.statistics 	p_hit 	0.34877123496126
scalar simple_scenario_network.statistics 	interests 	65846.6
scalar simple_scenario_network.statistics 	data 	29927.2
scalar simple_scenario_network.statistics 	hdistance 	1.1938172686626
scalar simple_scenario_network.statistics 	avg_time 	0.001985168542
scalar simple_scenario_network.statistics 	downloads 	179597
scalar simple_scenario_network.statistics 	total_cost 	33419
scalar simple_scenario_network.node[0].core_layer 	interests[0] 	179597
scalar simple_scenario_network.node[0].core_layer 	data[0] 	84866
scalar simple_scenario_network.node[0].core_layer 	repo_int[0] 	64770
scalar simple_scenario_network.node[0].content_store 	p_hit[0] 	0.5274642672205
scalar simple_scenario_network.node[0].content_store 	hits[0] 	94731
scalar simple_scenario_network.node[0].content_store 	misses[0] 	84866
scalar simple_scenario_network.node[1].core_layer 	interests[1] 	40750
scalar simple_scenario_network.node[1].core_layer 	data[1] 	30834
scalar simple_scenario_network.node[1].content_store 	p_hit[1] 	0.24333742331288
scalar simple_scenario_network.node[1].content_store 	hits[1] 	9916
scalar simple_scenario_network.node[1].content_store 	misses[1] 	30834
scalar simple_scenario_network.node[2].core_layer 	interests[2] 	44116
scalar simple_scenario_network.node[2].core_layer 	data[2] 	33936
scalar simple_scenario_network.node[2].content_store 	p_hit[2] 	0.23075528153051
scalar simple_scenario_network.node[2].content_store 	hits[2] 	10180
scalar simple_scenario_network.node[2].content_store 	misses[2] 	33936
scalar simple_scenario_network.node[3].core_layer 	interests[3] 	30834
scalar simple_scenario_network.node[3].core_layer 	repo_load[3] 	30834
scalar simple_scenario_network.node[3].core_layer 	data[3] 	0
scalar simple_scenario_network.node[3].content_store 	p_hit[3] 	0
scalar simple_scenario_network.node[3].content_store 	hits[3] 	0
scalar simple_scenario_network.node[3].content_store 	misses[3] 	30834
scalar simple_scenario_network.node[4].core_layer 	interests[4] 	33936
scalar simple_scenario_network.node[4].core_layer 	repo_load[4] 	33936
scalar simple_scenario_network.node[4].core_layer 	data[4] 	0
scalar simple_scenario_network.node[4].content_store 	p_hit[4] 	0
scalar simple_scenario_network.node[4].content_store 	hits[4] 	0
scalar simple_scenario_network.node[4].content_store 	misses[4] 	33936
scalar simple_scenario_network.client[0] 	hdistance[0] 	1.1938172686626
scalar simple_scenario_network.client[0] 	downloads[0] 	179597
scalar simple_scenario_network.client[0] 	avg_time[0] 	0.001985168542
