version 2
run General-1100-20140421-20:26:40-15834
attr D prob_cache
attr F nrr
attr R lru
attr a 0.8
attr configname General
attr csize 10
attr ctlg 10^3
attr datetime 20140421-20:26:40
attr experiment General
attr inifile omnetpp.ini
attr iterationvars "$net=simple_scenario, $rep=24, $priceratiovalue=4, $a=0.8, $ctlg=10^3, $F=nrr, $ttl=1000, $D=prob_cache, $R=lru, $csize=10"
attr iterationvars2 "$net=simple_scenario, $rep=24, $priceratiovalue=4, $a=0.8, $ctlg=10^3, $F=nrr, $ttl=1000, $D=prob_cache, $R=lru, $csize=10, $repetition=0"
attr measurement "$net=simple_scenario, $rep=24, $priceratiovalue=4, $a=0.8, $ctlg=10^3, $F=nrr, $ttl=1000, $D=prob_cache, $R=lru, $csize=10"
attr net simple_scenario
attr network networks.${net=simple_scenario}_network
attr priceratiovalue 4
attr processid 15834
attr rep 24
attr repetition 0
attr replication #0
attr resultdir results
attr runnumber 1100
attr seedset 24
attr ttl 1000

scalar . 	a 	0.8
scalar . 	csize 	10
scalar . 	priceratiovalue 	4
scalar . 	rep 	24
scalar . 	ttl 	1000
scalar simple_scenario_network.content_distribution 	repo-0 	3
scalar simple_scenario_network.content_distribution 	repo-1 	4
scalar simple_scenario_network.content_distribution 	client-0 	0
scalar simple_scenario_network.content_distribution 	repo-0_card 	506
scalar simple_scenario_network.content_distribution 	repo-1_card 	494
scalar simple_scenario_network.statistics 	p_hit 	0.076505802231003
scalar simple_scenario_network.statistics 	interests 	96118.2
scalar simple_scenario_network.statistics 	data 	60020
scalar simple_scenario_network.statistics 	hdistance 	2.4589757938068
scalar simple_scenario_network.statistics 	avg_time 	0.001998049352
scalar simple_scenario_network.statistics 	downloads 	180491
scalar simple_scenario_network.statistics 	total_cost 	76380
scalar simple_scenario_network.node[0].core_layer 	interests[0] 	180491
scalar simple_scenario_network.node[0].core_layer 	data[0] 	156377
scalar simple_scenario_network.node[0].core_layer 	repo_int[0] 	143723
scalar simple_scenario_network.node[0].content_store 	p_hit[0] 	0.13360222947405
scalar simple_scenario_network.node[0].content_store 	hits[0] 	24114
scalar simple_scenario_network.node[0].content_store 	misses[0] 	156377
scalar simple_scenario_network.node[1].core_layer 	interests[1] 	69212
scalar simple_scenario_network.node[1].core_layer 	data[1] 	64329
scalar simple_scenario_network.node[1].content_store 	p_hit[1] 	0.070551349476969
scalar simple_scenario_network.node[1].content_store 	hits[1] 	4883
scalar simple_scenario_network.node[1].content_store 	misses[1] 	64329
scalar simple_scenario_network.node[2].core_layer 	interests[2] 	87165
scalar simple_scenario_network.node[2].core_layer 	data[2] 	79394
scalar simple_scenario_network.node[2].content_store 	p_hit[2] 	0.08915275626685
scalar simple_scenario_network.node[2].content_store 	hits[2] 	7771
scalar simple_scenario_network.node[2].content_store 	misses[2] 	79394
scalar simple_scenario_network.node[3].core_layer 	interests[3] 	64329
scalar simple_scenario_network.node[3].core_layer 	repo_load[3] 	64329
scalar simple_scenario_network.node[3].core_layer 	data[3] 	0
scalar simple_scenario_network.node[3].content_store 	p_hit[3] 	0
scalar simple_scenario_network.node[3].content_store 	hits[3] 	0
scalar simple_scenario_network.node[3].content_store 	misses[3] 	64329
scalar simple_scenario_network.node[4].core_layer 	interests[4] 	79394
scalar simple_scenario_network.node[4].core_layer 	repo_load[4] 	79394
scalar simple_scenario_network.node[4].core_layer 	data[4] 	0
scalar simple_scenario_network.node[4].content_store 	p_hit[4] 	0
scalar simple_scenario_network.node[4].content_store 	hits[4] 	0
scalar simple_scenario_network.node[4].content_store 	misses[4] 	79394
scalar simple_scenario_network.client[0] 	hdistance[0] 	2.4589757938068
scalar simple_scenario_network.client[0] 	downloads[0] 	180491
scalar simple_scenario_network.client[0] 	avg_time[0] 	0.001998049352
