version 2
run General-11-20140626-16:20:07-16473
attr D costprobprodcorr0.01
attr F nrr
attr R lru
attr a 1
attr configname General
attr csize 1e3
attr ctlg 1e5
attr datetime 20140626-16:20:07
attr experiment General
attr inifile omnetpp.ini
attr iterationvars "$net=geant_cost, $rep=8, $priceratiovalue=10, $weights=0.333_0.333_0.334, $lambda=100, $a=1, $ctlg=1e5, $F=nrr, $ttl=1000, $D=costprobprodcorr0.01, $xi=1, $R=lru, $csize=1e3, $pricebits=0, $mytime=1800"
attr iterationvars2 "$net=geant_cost, $rep=8, $priceratiovalue=10, $weights=0.333_0.333_0.334, $lambda=100, $a=1, $ctlg=1e5, $F=nrr, $ttl=1000, $D=costprobprodcorr0.01, $xi=1, $R=lru, $csize=1e3, $pricebits=0, $mytime=1800, $repetition=0"
attr lambda 100
attr measurement "$net=geant_cost, $rep=8, $priceratiovalue=10, $weights=0.333_0.333_0.334, $lambda=100, $a=1, $ctlg=1e5, $F=nrr, $ttl=1000, $D=costprobprodcorr0.01, $xi=1, $R=lru, $csize=1e3, $pricebits=0, $mytime=1800"
attr mytime 1800
attr net geant_cost
attr network "networks.${net=geant_cost, abilene_cost}_network"
attr pricebits 0
attr priceratiovalue 10
attr processid 16473
attr rep 8
attr repetition 0
attr replication #0
attr resultdir results
attr runnumber 11
attr seedset 8
attr ttl 1000
attr weights 0.333_0.333_0.334
attr xi 1

scalar . 	a 	1
scalar . 	csize 	1e3
scalar . 	ctlg 	1e5
scalar . 	lambda 	100
scalar . 	mytime 	1800
scalar . 	pricebits 	0
scalar . 	priceratiovalue 	10
scalar . 	rep 	8
scalar . 	ttl 	1000
scalar . 	xi 	1
scalar geant_cost_network.content_distribution 	repo-0 	22
scalar geant_cost_network.content_distribution 	repo-1 	23
scalar geant_cost_network.content_distribution 	repo-2 	24
scalar geant_cost_network.content_distribution 	client-0 	20
scalar geant_cost_network.content_distribution 	client-1 	10
scalar geant_cost_network.content_distribution 	client-2 	12
scalar geant_cost_network.content_distribution 	client-3 	9
scalar geant_cost_network.content_distribution 	client-4 	5
scalar geant_cost_network.content_distribution 	repo-0_card 	33481
scalar geant_cost_network.content_distribution 	repo-1_card 	33257
scalar geant_cost_network.content_distribution 	repo-2_card 	33262
scalar geant_cost_network.statistics 	repo_popularity[0] 	0.31048403425595
scalar geant_cost_network.statistics 	repo_popularity[1] 	0.33358081359224
scalar geant_cost_network.statistics 	repo_popularity[2] 	0.35593515215181
scalar geant_cost_network.statistics 	stabilization_time 	36060
scalar geant_cost_network.node[7].face$o[4].channel 	price[7] 	0
scalar geant_cost_network.node[7].face$o[4].channel 	represented_price[7] 	0
scalar geant_cost_network.node[8].face$o[3].channel 	price[8] 	0
scalar geant_cost_network.node[8].face$o[3].channel 	represented_price[8] 	0
scalar geant_cost_network.node[21].face$o[5].channel 	price[21] 	0
scalar geant_cost_network.node[21].face$o[5].channel 	represented_price[21] 	0
scalar geant_cost_network.node[22].face$o[1].channel 	price[22] 	0
scalar geant_cost_network.node[22].face$o[1].channel 	represented_price[22] 	0
scalar geant_cost_network.node[23].face$o[1].channel 	price[23] 	1
scalar geant_cost_network.node[23].face$o[1].channel 	represented_price[23] 	1
scalar geant_cost_network.node[24].face$o[1].channel 	price[24] 	10
scalar geant_cost_network.node[24].face$o[1].channel 	represented_price[24] 	10
scalar geant_cost_network.statistics 	p_hit 	0.092223646321837
scalar geant_cost_network.statistics 	interests 	145495.44
scalar geant_cost_network.statistics 	data 	109463.36
scalar geant_cost_network.statistics 	hdistance 	3.7071285205943
scalar geant_cost_network.statistics 	avg_time 	0.008285081887
scalar geant_cost_network.statistics 	downloads 	890906
scalar geant_cost_network.statistics 	total_cost 	1460710
scalar geant_cost_network.statistics 	total_replicas 	100000
scalar geant_cost_network.statistics 	inner_hit 	0.38640776916981
scalar geant_cost_network.statistics 	interests_sent 	900810
scalar geant_cost_network.node[0].core_layer 	interests[0] 	0
scalar geant_cost_network.node[0].core_layer 	data[0] 	0
scalar geant_cost_network.node[0].core_layer 	repo_int[0] 	546653
scalar geant_cost_network.node[0].content_store 	p_hit[0] 	-nan
scalar geant_cost_network.node[0].content_store 	hits[0] 	0
scalar geant_cost_network.node[0].content_store 	misses[0] 	0
scalar geant_cost_network.node[0].content_store 	decision_yes[0] 	0
scalar geant_cost_network.node[0].content_store 	decision_no[0] 	0
scalar geant_cost_network.node[0].content_store 	decision_ratio[0] 	0
scalar geant_cost_network.node[0].content_store 	correction_factor[0] 	0.0027225701061802
scalar geant_cost_network.node[0].content_store 	xi[0] 	1
scalar geant_cost_network.node[1].core_layer 	interests[1] 	0
scalar geant_cost_network.node[1].core_layer 	data[1] 	0
scalar geant_cost_network.node[1].content_store 	p_hit[1] 	-nan
scalar geant_cost_network.node[1].content_store 	hits[1] 	0
scalar geant_cost_network.node[1].content_store 	misses[1] 	0
scalar geant_cost_network.node[1].content_store 	decision_yes[1] 	0
scalar geant_cost_network.node[1].content_store 	decision_no[1] 	0
scalar geant_cost_network.node[1].content_store 	decision_ratio[1] 	0
scalar geant_cost_network.node[1].content_store 	correction_factor[1] 	0.0027225701061802
scalar geant_cost_network.node[1].content_store 	xi[1] 	1
scalar geant_cost_network.node[2].core_layer 	interests[2] 	0
scalar geant_cost_network.node[2].core_layer 	data[2] 	0
scalar geant_cost_network.node[2].content_store 	p_hit[2] 	-nan
scalar geant_cost_network.node[2].content_store 	hits[2] 	0
scalar geant_cost_network.node[2].content_store 	misses[2] 	0
scalar geant_cost_network.node[2].content_store 	decision_yes[2] 	0
scalar geant_cost_network.node[2].content_store 	decision_no[2] 	0
scalar geant_cost_network.node[2].content_store 	decision_ratio[2] 	0
scalar geant_cost_network.node[2].content_store 	correction_factor[2] 	0.0027225701061802
scalar geant_cost_network.node[2].content_store 	xi[2] 	1
scalar geant_cost_network.node[3].core_layer 	interests[3] 	266378
scalar geant_cost_network.node[3].core_layer 	data[3] 	190802
scalar geant_cost_network.node[3].content_store 	p_hit[3] 	0.28370586159518
scalar geant_cost_network.node[3].content_store 	hits[3] 	75573
scalar geant_cost_network.node[3].content_store 	misses[3] 	190805
scalar geant_cost_network.node[3].content_store 	decision_yes[3] 	2231
scalar geant_cost_network.node[3].content_store 	decision_no[3] 	188571
scalar geant_cost_network.node[3].content_store 	decision_ratio[3] 	0.011692749551891
scalar geant_cost_network.node[3].content_store 	correction_factor[3] 	0.0027225701061802
scalar geant_cost_network.node[3].content_store 	xi[3] 	1
scalar geant_cost_network.node[4].core_layer 	interests[4] 	287928
scalar geant_cost_network.node[4].core_layer 	data[4] 	273210
scalar geant_cost_network.node[4].content_store 	p_hit[4] 	0.050953710649885
scalar geant_cost_network.node[4].content_store 	hits[4] 	14671
scalar geant_cost_network.node[4].content_store 	misses[4] 	273257
scalar geant_cost_network.node[4].content_store 	decision_yes[4] 	2216
scalar geant_cost_network.node[4].content_store 	decision_no[4] 	270993
scalar geant_cost_network.node[4].content_store 	decision_ratio[4] 	0.008111006592023
scalar geant_cost_network.node[4].content_store 	correction_factor[4] 	0.0027225701061802
scalar geant_cost_network.node[4].content_store 	xi[4] 	1
scalar geant_cost_network.node[5].core_layer 	interests[5] 	194602
scalar geant_cost_network.node[5].core_layer 	data[5] 	180301
scalar geant_cost_network.node[5].content_store 	p_hit[5] 	0.065826661596489
scalar geant_cost_network.node[5].content_store 	hits[5] 	12810
scalar geant_cost_network.node[5].content_store 	misses[5] 	181792
scalar geant_cost_network.node[5].content_store 	decision_yes[5] 	790
scalar geant_cost_network.node[5].content_store 	decision_no[5] 	179511
scalar geant_cost_network.node[5].content_store 	decision_ratio[5] 	0.0043815619436387
scalar geant_cost_network.node[5].content_store 	correction_factor[5] 	0.0027225701061802
scalar geant_cost_network.node[5].content_store 	xi[5] 	1
scalar geant_cost_network.node[6].core_layer 	interests[6] 	103259
scalar geant_cost_network.node[6].core_layer 	data[6] 	92654
scalar geant_cost_network.node[6].content_store 	p_hit[6] 	0.10269322770896
scalar geant_cost_network.node[6].content_store 	hits[6] 	10604
scalar geant_cost_network.node[6].content_store 	misses[6] 	92655
scalar geant_cost_network.node[6].content_store 	decision_yes[6] 	77
scalar geant_cost_network.node[6].content_store 	decision_no[6] 	92577
scalar geant_cost_network.node[6].content_store 	decision_ratio[6] 	0.00083104884840374
scalar geant_cost_network.node[6].content_store 	correction_factor[6] 	0.0027225701061802
scalar geant_cost_network.node[6].content_store 	xi[6] 	1
scalar geant_cost_network.node[7].core_layer 	interests[7] 	373478
scalar geant_cost_network.node[7].core_layer 	data[7] 	363060
scalar geant_cost_network.node[7].content_store 	p_hit[7] 	0.027849029929474
scalar geant_cost_network.node[7].content_store 	hits[7] 	10401
scalar geant_cost_network.node[7].content_store 	misses[7] 	363077
scalar geant_cost_network.node[7].content_store 	decision_yes[7] 	157
scalar geant_cost_network.node[7].content_store 	decision_no[7] 	362903
scalar geant_cost_network.node[7].content_store 	decision_ratio[7] 	0.00043243541012505
scalar geant_cost_network.node[7].content_store 	correction_factor[7] 	0.0027225701061802
scalar geant_cost_network.node[7].content_store 	xi[7] 	1
scalar geant_cost_network.node[8].core_layer 	interests[8] 	323641
scalar geant_cost_network.node[8].core_layer 	data[8] 	265758
scalar geant_cost_network.node[8].content_store 	p_hit[8] 	0.1788494041237
scalar geant_cost_network.node[8].content_store 	hits[8] 	57883
scalar geant_cost_network.node[8].content_store 	misses[8] 	265758
scalar geant_cost_network.node[8].content_store 	decision_yes[8] 	362
scalar geant_cost_network.node[8].content_store 	decision_no[8] 	265396
scalar geant_cost_network.node[8].content_store 	decision_ratio[8] 	0.0013621414971515
scalar geant_cost_network.node[8].content_store 	correction_factor[8] 	0.0027225701061802
scalar geant_cost_network.node[8].content_store 	xi[8] 	1
scalar geant_cost_network.node[9].core_layer 	interests[9] 	430680
scalar geant_cost_network.node[9].core_layer 	data[9] 	376629
scalar geant_cost_network.node[9].content_store 	p_hit[9] 	0.11209714869509
scalar geant_cost_network.node[9].content_store 	hits[9] 	48278
scalar geant_cost_network.node[9].content_store 	misses[9] 	382402
scalar geant_cost_network.node[9].content_store 	decision_yes[9] 	1629
scalar geant_cost_network.node[9].content_store 	decision_no[9] 	375000
scalar geant_cost_network.node[9].content_store 	decision_ratio[9] 	0.0043252112821902
scalar geant_cost_network.node[9].content_store 	correction_factor[9] 	0.0027225701061802
scalar geant_cost_network.node[9].content_store 	xi[9] 	1
scalar geant_cost_network.node[10].core_layer 	interests[10] 	191238
scalar geant_cost_network.node[10].core_layer 	data[10] 	174161
scalar geant_cost_network.node[10].content_store 	p_hit[10] 	0.076240077808804
scalar geant_cost_network.node[10].content_store 	hits[10] 	14580
scalar geant_cost_network.node[10].content_store 	misses[10] 	176658
scalar geant_cost_network.node[10].content_store 	decision_yes[10] 	770
scalar geant_cost_network.node[10].content_store 	decision_no[10] 	173391
scalar geant_cost_network.node[10].content_store 	decision_ratio[10] 	0.0044211964791199
scalar geant_cost_network.node[10].content_store 	correction_factor[10] 	0.0027225701061802
scalar geant_cost_network.node[10].content_store 	xi[10] 	1
scalar geant_cost_network.node[11].core_layer 	interests[11] 	0
scalar geant_cost_network.node[11].core_layer 	data[11] 	0
scalar geant_cost_network.node[11].content_store 	p_hit[11] 	-nan
scalar geant_cost_network.node[11].content_store 	hits[11] 	0
scalar geant_cost_network.node[11].content_store 	misses[11] 	0
scalar geant_cost_network.node[11].content_store 	decision_yes[11] 	0
scalar geant_cost_network.node[11].content_store 	decision_no[11] 	0
scalar geant_cost_network.node[11].content_store 	decision_ratio[11] 	0
scalar geant_cost_network.node[11].content_store 	correction_factor[11] 	0.0027225701061802
scalar geant_cost_network.node[11].content_store 	xi[11] 	1
scalar geant_cost_network.node[12].core_layer 	interests[12] 	316926
scalar geant_cost_network.node[12].core_layer 	data[12] 	301023
scalar geant_cost_network.node[12].content_store 	p_hit[12] 	0.026993683067972
scalar geant_cost_network.node[12].content_store 	hits[12] 	8555
scalar geant_cost_network.node[12].content_store 	misses[12] 	308371
scalar geant_cost_network.node[12].content_store 	decision_yes[12] 	2155
scalar geant_cost_network.node[12].content_store 	decision_no[12] 	298868
scalar geant_cost_network.node[12].content_store 	decision_ratio[12] 	0.0071589214113207
scalar geant_cost_network.node[12].content_store 	correction_factor[12] 	0.0027225701061802
scalar geant_cost_network.node[12].content_store 	xi[12] 	1
scalar geant_cost_network.node[13].core_layer 	interests[13] 	16789
scalar geant_cost_network.node[13].core_layer 	data[13] 	16790
scalar geant_cost_network.node[13].content_store 	p_hit[13] 	0
scalar geant_cost_network.node[13].content_store 	hits[13] 	0
scalar geant_cost_network.node[13].content_store 	misses[13] 	16789
scalar geant_cost_network.node[13].content_store 	decision_yes[13] 	0
scalar geant_cost_network.node[13].content_store 	decision_no[13] 	16790
scalar geant_cost_network.node[13].content_store 	decision_ratio[13] 	0
scalar geant_cost_network.node[13].content_store 	correction_factor[13] 	0.0027225701061802
scalar geant_cost_network.node[13].content_store 	xi[13] 	1
scalar geant_cost_network.node[14].core_layer 	interests[14] 	79900
scalar geant_cost_network.node[14].core_layer 	data[14] 	44652
scalar geant_cost_network.node[14].content_store 	p_hit[14] 	0.44115143929912
scalar geant_cost_network.node[14].content_store 	hits[14] 	35248
scalar geant_cost_network.node[14].content_store 	misses[14] 	44652
scalar geant_cost_network.node[14].content_store 	decision_yes[14] 	695
scalar geant_cost_network.node[14].content_store 	decision_no[14] 	43957
scalar geant_cost_network.node[14].content_store 	decision_ratio[14] 	0.015564812326436
scalar geant_cost_network.node[14].content_store 	correction_factor[14] 	0.0027225701061802
scalar geant_cost_network.node[14].content_store 	xi[14] 	1
scalar geant_cost_network.node[15].core_layer 	interests[15] 	0
scalar geant_cost_network.node[15].core_layer 	data[15] 	0
scalar geant_cost_network.node[15].content_store 	p_hit[15] 	-nan
scalar geant_cost_network.node[15].content_store 	hits[15] 	0
scalar geant_cost_network.node[15].content_store 	misses[15] 	0
scalar geant_cost_network.node[15].content_store 	decision_yes[15] 	0
scalar geant_cost_network.node[15].content_store 	decision_no[15] 	0
scalar geant_cost_network.node[15].content_store 	decision_ratio[15] 	0
scalar geant_cost_network.node[15].content_store 	correction_factor[15] 	0.0027225701061802
scalar geant_cost_network.node[15].content_store 	xi[15] 	1
scalar geant_cost_network.node[16].core_layer 	interests[16] 	0
scalar geant_cost_network.node[16].core_layer 	data[16] 	0
scalar geant_cost_network.node[16].content_store 	p_hit[16] 	-nan
scalar geant_cost_network.node[16].content_store 	hits[16] 	0
scalar geant_cost_network.node[16].content_store 	misses[16] 	0
scalar geant_cost_network.node[16].content_store 	decision_yes[16] 	0
scalar geant_cost_network.node[16].content_store 	decision_no[16] 	0
scalar geant_cost_network.node[16].content_store 	decision_ratio[16] 	0
scalar geant_cost_network.node[16].content_store 	correction_factor[16] 	0.0027225701061802
scalar geant_cost_network.node[16].content_store 	xi[16] 	1
scalar geant_cost_network.node[17].core_layer 	interests[17] 	0
scalar geant_cost_network.node[17].core_layer 	data[17] 	0
scalar geant_cost_network.node[17].content_store 	p_hit[17] 	-nan
scalar geant_cost_network.node[17].content_store 	hits[17] 	0
scalar geant_cost_network.node[17].content_store 	misses[17] 	0
scalar geant_cost_network.node[17].content_store 	decision_yes[17] 	0
scalar geant_cost_network.node[17].content_store 	decision_no[17] 	0
scalar geant_cost_network.node[17].content_store 	decision_ratio[17] 	0
scalar geant_cost_network.node[17].content_store 	correction_factor[17] 	0.0027225701061802
scalar geant_cost_network.node[17].content_store 	xi[17] 	1
scalar geant_cost_network.node[18].core_layer 	interests[18] 	166802
scalar geant_cost_network.node[18].core_layer 	data[18] 	151507
scalar geant_cost_network.node[18].content_store 	p_hit[18] 	0.091653577295236
scalar geant_cost_network.node[18].content_store 	hits[18] 	15288
scalar geant_cost_network.node[18].content_store 	misses[18] 	151514
scalar geant_cost_network.node[18].content_store 	decision_yes[18] 	81
scalar geant_cost_network.node[18].content_store 	decision_no[18] 	151426
scalar geant_cost_network.node[18].content_store 	decision_ratio[18] 	0.00053462876302745
scalar geant_cost_network.node[18].content_store 	correction_factor[18] 	0.0027225701061802
scalar geant_cost_network.node[18].content_store 	xi[18] 	1
scalar geant_cost_network.node[19].core_layer 	interests[19] 	0
scalar geant_cost_network.node[19].core_layer 	data[19] 	0
scalar geant_cost_network.node[19].content_store 	p_hit[19] 	-nan
scalar geant_cost_network.node[19].content_store 	hits[19] 	0
scalar geant_cost_network.node[19].content_store 	misses[19] 	0
scalar geant_cost_network.node[19].content_store 	decision_yes[19] 	0
scalar geant_cost_network.node[19].content_store 	decision_no[19] 	0
scalar geant_cost_network.node[19].content_store 	decision_ratio[19] 	0
scalar geant_cost_network.node[19].content_store 	correction_factor[19] 	0.0027225701061802
scalar geant_cost_network.node[19].content_store 	xi[19] 	1
scalar geant_cost_network.node[20].core_layer 	interests[20] 	196110
scalar geant_cost_network.node[20].core_layer 	data[20] 	173491
scalar geant_cost_network.node[20].content_store 	p_hit[20] 	0.1076232726531
scalar geant_cost_network.node[20].content_store 	hits[20] 	21106
scalar geant_cost_network.node[20].content_store 	misses[20] 	175004
scalar geant_cost_network.node[20].content_store 	decision_yes[20] 	787
scalar geant_cost_network.node[20].content_store 	decision_no[20] 	172704
scalar geant_cost_network.node[20].content_store 	decision_ratio[20] 	0.0045362583649872
scalar geant_cost_network.node[20].content_store 	correction_factor[20] 	0.0027225701061802
scalar geant_cost_network.node[20].content_store 	xi[20] 	1
scalar geant_cost_network.node[21].core_layer 	interests[21] 	143002
scalar geant_cost_network.node[21].core_layer 	data[21] 	132546
scalar geant_cost_network.node[21].content_store 	p_hit[21] 	0.07311785849149
scalar geant_cost_network.node[21].content_store 	hits[21] 	10456
scalar geant_cost_network.node[21].content_store 	misses[21] 	132546
scalar geant_cost_network.node[21].content_store 	decision_yes[21] 	3677
scalar geant_cost_network.node[21].content_store 	decision_no[21] 	128869
scalar geant_cost_network.node[21].content_store 	decision_ratio[21] 	0.027741312450017
scalar geant_cost_network.node[21].content_store 	correction_factor[21] 	0.0027225701061802
scalar geant_cost_network.node[21].content_store 	xi[21] 	1
scalar geant_cost_network.node[22].core_layer 	interests[22] 	278857
scalar geant_cost_network.node[22].core_layer 	repo_load[22] 	278857
scalar geant_cost_network.node[22].core_layer 	data[22] 	0
scalar geant_cost_network.node[22].content_store 	p_hit[22] 	0
scalar geant_cost_network.node[22].content_store 	hits[22] 	0
scalar geant_cost_network.node[22].content_store 	misses[22] 	278857
scalar geant_cost_network.node[22].content_store 	decision_yes[22] 	0
scalar geant_cost_network.node[22].content_store 	decision_no[22] 	278857
scalar geant_cost_network.node[22].content_store 	decision_ratio[22] 	0
scalar geant_cost_network.node[23].core_layer 	interests[23] 	135250
scalar geant_cost_network.node[23].core_layer 	repo_load[23] 	135250
scalar geant_cost_network.node[23].core_layer 	data[23] 	0
scalar geant_cost_network.node[23].content_store 	p_hit[23] 	0
scalar geant_cost_network.node[23].content_store 	hits[23] 	0
scalar geant_cost_network.node[23].content_store 	misses[23] 	135250
scalar geant_cost_network.node[23].content_store 	decision_yes[23] 	0
scalar geant_cost_network.node[23].content_store 	decision_no[23] 	135250
scalar geant_cost_network.node[23].content_store 	decision_ratio[23] 	0
scalar geant_cost_network.node[24].core_layer 	interests[24] 	132546
scalar geant_cost_network.node[24].core_layer 	repo_load[24] 	132546
scalar geant_cost_network.node[24].core_layer 	data[24] 	0
scalar geant_cost_network.node[24].content_store 	p_hit[24] 	0
scalar geant_cost_network.node[24].content_store 	hits[24] 	0
scalar geant_cost_network.node[24].content_store 	misses[24] 	132546
scalar geant_cost_network.node[24].content_store 	decision_yes[24] 	0
scalar geant_cost_network.node[24].content_store 	decision_no[24] 	132546
scalar geant_cost_network.node[24].content_store 	decision_ratio[24] 	0
scalar geant_cost_network.client[5] 	hdistance[5] 	3.3426853595123
scalar geant_cost_network.client[5] 	downloads[5] 	178464
scalar geant_cost_network.client[5] 	avg_time[5] 	0.009683343168
scalar geant_cost_network.client[5] 	interests_sent[5] 	179955
scalar geant_cost_network.client[9] 	hdistance[9] 	3.3186996904025
scalar geant_cost_network.client[9] 	downloads[9] 	177650
scalar geant_cost_network.client[9] 	avg_time[9] 	0.00701228771
scalar geant_cost_network.client[9] 	interests_sent[9] 	179910
scalar geant_cost_network.client[10] 	hdistance[10] 	4.2878159078862
scalar geant_cost_network.client[10] 	downloads[10] 	177346
scalar geant_cost_network.client[10] 	avg_time[10] 	0.008944385796
scalar geant_cost_network.client[10] 	interests_sent[10] 	179843
scalar geant_cost_network.client[12] 	hdistance[12] 	3.593344601023
scalar geant_cost_network.client[12] 	downloads[12] 	178682
scalar geant_cost_network.client[12] 	avg_time[12] 	0.00796049991
scalar geant_cost_network.client[12] 	interests_sent[12] 	180825
scalar geant_cost_network.client[20] 	hdistance[20] 	3.9930970441476
scalar geant_cost_network.client[20] 	downloads[20] 	178764
scalar geant_cost_network.client[20] 	avg_time[20] 	0.007824892851
scalar geant_cost_network.client[20] 	interests_sent[20] 	180277
