version 2
run General-19-20140627-19:06:12-15341
attr D costprobprodcorr0.01
attr F nrr
attr R lru
attr a 1
attr configname General
attr csize 1e3
attr ctlg 1e5
attr datetime 20140627-19:06:12
attr experiment General
attr inifile omnetpp.ini
attr iterationvars "$net=geant_cost, $rep=20, $priceratiovalue=10, $weights=0.333_0.333_0.334, $lambda=100, $a=1, $ctlg=1e5, $F=nrr, $ttl=1000, $D=costprobprodcorr0.01, $xi=1, $R=lru, $csize=1e3, $pricebits=0, $window=60, $variance=0.05, $mytime=1800"
attr iterationvars2 "$net=geant_cost, $rep=20, $priceratiovalue=10, $weights=0.333_0.333_0.334, $lambda=100, $a=1, $ctlg=1e5, $F=nrr, $ttl=1000, $D=costprobprodcorr0.01, $xi=1, $R=lru, $csize=1e3, $pricebits=0, $window=60, $variance=0.05, $mytime=1800, $repetition=0"
attr lambda 100
attr measurement "$net=geant_cost, $rep=20, $priceratiovalue=10, $weights=0.333_0.333_0.334, $lambda=100, $a=1, $ctlg=1e5, $F=nrr, $ttl=1000, $D=costprobprodcorr0.01, $xi=1, $R=lru, $csize=1e3, $pricebits=0, $window=60, $variance=0.05, $mytime=1800"
attr mytime 1800
attr net geant_cost
attr network "networks.${net=geant_cost, abilene_cost}_network"
attr pricebits 0
attr priceratiovalue 10
attr processid 15341
attr rep 20
attr repetition 0
attr replication #0
attr resultdir results
attr runnumber 19
attr seedset 20
attr ttl 1000
attr variance 0.05
attr weights 0.333_0.333_0.334
attr window 60
attr xi 1

scalar . 	a 	1
scalar . 	csize 	1e3
scalar . 	ctlg 	1e5
scalar . 	lambda 	100
scalar . 	mytime 	1800
scalar . 	pricebits 	0
scalar . 	priceratiovalue 	10
scalar . 	rep 	20
scalar . 	ttl 	1000
scalar . 	variance 	0.05
scalar . 	window 	60
scalar . 	xi 	1
scalar geant_cost_network.content_distribution 	repo-0 	22
scalar geant_cost_network.content_distribution 	repo-1 	23
scalar geant_cost_network.content_distribution 	repo-2 	24
scalar geant_cost_network.content_distribution 	client-0 	20
scalar geant_cost_network.content_distribution 	client-1 	10
scalar geant_cost_network.content_distribution 	client-2 	12
scalar geant_cost_network.content_distribution 	client-3 	9
scalar geant_cost_network.content_distribution 	client-4 	5
scalar geant_cost_network.content_distribution 	repo-0_card 	33321
scalar geant_cost_network.content_distribution 	repo-1_card 	33296
scalar geant_cost_network.content_distribution 	repo-2_card 	33383
scalar geant_cost_network.statistics 	repo_popularity[0] 	0.30078651597297
scalar geant_cost_network.statistics 	repo_popularity[1] 	0.29276091736323
scalar geant_cost_network.statistics 	repo_popularity[2] 	0.4064525666638
scalar geant_cost_network.statistics 	stabilization_time 	36060
scalar geant_cost_network.node[7].face$o[4].channel 	price[7] 	0
scalar geant_cost_network.node[7].face$o[4].channel 	represented_price[7] 	0
scalar geant_cost_network.node[8].face$o[3].channel 	price[8] 	0
scalar geant_cost_network.node[8].face$o[3].channel 	represented_price[8] 	0
scalar geant_cost_network.node[21].face$o[5].channel 	price[21] 	0
scalar geant_cost_network.node[21].face$o[5].channel 	represented_price[21] 	0
scalar geant_cost_network.node[22].face$o[1].channel 	price[22] 	0
scalar geant_cost_network.node[22].face$o[1].channel 	represented_price[22] 	0
scalar geant_cost_network.node[23].face$o[1].channel 	price[23] 	1
scalar geant_cost_network.node[23].face$o[1].channel 	represented_price[23] 	1
scalar geant_cost_network.node[24].face$o[1].channel 	price[24] 	10
scalar geant_cost_network.node[24].face$o[1].channel 	represented_price[24] 	10
scalar geant_cost_network.statistics 	p_hit 	0.097614197346266
scalar geant_cost_network.statistics 	interests 	145126.84
scalar geant_cost_network.statistics 	data 	109124.16
scalar geant_cost_network.statistics 	hdistance 	3.6597106280162
scalar geant_cost_network.statistics 	avg_time 	0.007106150428
scalar geant_cost_network.statistics 	downloads 	894611
scalar geant_cost_network.statistics 	total_cost 	1437124
scalar geant_cost_network.statistics 	total_replicas 	100000
scalar geant_cost_network.statistics 	inner_hit 	0.40058640012251
scalar geant_cost_network.statistics 	interests_sent 	900069
scalar geant_cost_network.node[0].core_layer 	interests[0] 	0
scalar geant_cost_network.node[0].core_layer 	data[0] 	0
scalar geant_cost_network.node[0].core_layer 	repo_int[0] 	536242
scalar geant_cost_network.node[0].content_store 	p_hit[0] 	-nan
scalar geant_cost_network.node[0].content_store 	hits[0] 	0
scalar geant_cost_network.node[0].content_store 	misses[0] 	0
scalar geant_cost_network.node[0].content_store 	decision_yes[0] 	0
scalar geant_cost_network.node[0].content_store 	decision_no[0] 	0
scalar geant_cost_network.node[0].content_store 	decision_ratio[0] 	0
scalar geant_cost_network.node[0].content_store 	correction_factor[0] 	0.0027225701061802
scalar geant_cost_network.node[0].content_store 	xi[0] 	1
scalar geant_cost_network.node[1].core_layer 	interests[1] 	0
scalar geant_cost_network.node[1].core_layer 	data[1] 	0
scalar geant_cost_network.node[1].content_store 	p_hit[1] 	-nan
scalar geant_cost_network.node[1].content_store 	hits[1] 	0
scalar geant_cost_network.node[1].content_store 	misses[1] 	0
scalar geant_cost_network.node[1].content_store 	decision_yes[1] 	0
scalar geant_cost_network.node[1].content_store 	decision_no[1] 	0
scalar geant_cost_network.node[1].content_store 	decision_ratio[1] 	0
scalar geant_cost_network.node[1].content_store 	correction_factor[1] 	0.0027225701061802
scalar geant_cost_network.node[1].content_store 	xi[1] 	1
scalar geant_cost_network.node[2].core_layer 	interests[2] 	0
scalar geant_cost_network.node[2].core_layer 	data[2] 	0
scalar geant_cost_network.node[2].content_store 	p_hit[2] 	-nan
scalar geant_cost_network.node[2].content_store 	hits[2] 	0
scalar geant_cost_network.node[2].content_store 	misses[2] 	0
scalar geant_cost_network.node[2].content_store 	decision_yes[2] 	0
scalar geant_cost_network.node[2].content_store 	decision_no[2] 	0
scalar geant_cost_network.node[2].content_store 	decision_ratio[2] 	0
scalar geant_cost_network.node[2].content_store 	correction_factor[2] 	0.0027225701061802
scalar geant_cost_network.node[2].content_store 	xi[2] 	1
scalar geant_cost_network.node[3].core_layer 	interests[3] 	256510
scalar geant_cost_network.node[3].core_layer 	data[3] 	242868
scalar geant_cost_network.node[3].content_store 	p_hit[3] 	0.050422985458657
scalar geant_cost_network.node[3].content_store 	hits[3] 	12934
scalar geant_cost_network.node[3].content_store 	misses[3] 	243576
scalar geant_cost_network.node[3].content_store 	decision_yes[3] 	2072
scalar geant_cost_network.node[3].content_store 	decision_no[3] 	240796
scalar geant_cost_network.node[3].content_store 	decision_ratio[3] 	0.0085313833028641
scalar geant_cost_network.node[3].content_store 	correction_factor[3] 	0.0027225701061802
scalar geant_cost_network.node[3].content_store 	xi[3] 	1
scalar geant_cost_network.node[4].core_layer 	interests[4] 	334872
scalar geant_cost_network.node[4].core_layer 	data[4] 	257073
scalar geant_cost_network.node[4].content_store 	p_hit[4] 	0.23202596813111
scalar geant_cost_network.node[4].content_store 	hits[4] 	77699
scalar geant_cost_network.node[4].content_store 	misses[4] 	257173
scalar geant_cost_network.node[4].content_store 	decision_yes[4] 	2088
scalar geant_cost_network.node[4].content_store 	decision_no[4] 	254985
scalar geant_cost_network.node[4].content_store 	decision_ratio[4] 	0.0081222065327747
scalar geant_cost_network.node[4].content_store 	correction_factor[4] 	0.0027225701061802
scalar geant_cost_network.node[4].content_store 	xi[4] 	1
scalar geant_cost_network.node[5].core_layer 	interests[5] 	199013
scalar geant_cost_network.node[5].core_layer 	data[5] 	183487
scalar geant_cost_network.node[5].content_store 	p_hit[5] 	0.069593443644385
scalar geant_cost_network.node[5].content_store 	hits[5] 	13850
scalar geant_cost_network.node[5].content_store 	misses[5] 	185163
scalar geant_cost_network.node[5].content_store 	decision_yes[5] 	766
scalar geant_cost_network.node[5].content_store 	decision_no[5] 	182721
scalar geant_cost_network.node[5].content_store 	decision_ratio[5] 	0.0041746826750669
scalar geant_cost_network.node[5].content_store 	correction_factor[5] 	0.0027225701061802
scalar geant_cost_network.node[5].content_store 	xi[5] 	1
scalar geant_cost_network.node[6].core_layer 	interests[6] 	111947
scalar geant_cost_network.node[6].core_layer 	data[6] 	92032
scalar geant_cost_network.node[6].content_store 	p_hit[6] 	0.1778966832519
scalar geant_cost_network.node[6].content_store 	hits[6] 	19915
scalar geant_cost_network.node[6].content_store 	misses[6] 	92032
scalar geant_cost_network.node[6].content_store 	decision_yes[6] 	72
scalar geant_cost_network.node[6].content_store 	decision_no[6] 	91960
scalar geant_cost_network.node[6].content_store 	decision_ratio[6] 	0.00078233657858136
scalar geant_cost_network.node[6].content_store 	correction_factor[6] 	0.0027225701061802
scalar geant_cost_network.node[6].content_store 	xi[6] 	1
scalar geant_cost_network.node[7].core_layer 	interests[7] 	372098
scalar geant_cost_network.node[7].core_layer 	data[7] 	355376
scalar geant_cost_network.node[7].content_store 	p_hit[7] 	0.044888712113475
scalar geant_cost_network.node[7].content_store 	hits[7] 	16703
scalar geant_cost_network.node[7].content_store 	misses[7] 	355395
scalar geant_cost_network.node[7].content_store 	decision_yes[7] 	153
scalar geant_cost_network.node[7].content_store 	decision_no[7] 	355223
scalar geant_cost_network.node[7].content_store 	decision_ratio[7] 	0.00043052991760839
scalar geant_cost_network.node[7].content_store 	correction_factor[7] 	0.0027225701061802
scalar geant_cost_network.node[7].content_store 	xi[7] 	1
scalar geant_cost_network.node[8].core_layer 	interests[8] 	307912
scalar geant_cost_network.node[8].core_layer 	data[8] 	266215
scalar geant_cost_network.node[8].content_store 	p_hit[8] 	0.13541856114734
scalar geant_cost_network.node[8].content_store 	hits[8] 	41697
scalar geant_cost_network.node[8].content_store 	misses[8] 	266215
scalar geant_cost_network.node[8].content_store 	decision_yes[8] 	367
scalar geant_cost_network.node[8].content_store 	decision_no[8] 	265848
scalar geant_cost_network.node[8].content_store 	decision_ratio[8] 	0.001378584978307
scalar geant_cost_network.node[8].content_store 	correction_factor[8] 	0.0027225701061802
scalar geant_cost_network.node[8].content_store 	xi[8] 	1
scalar geant_cost_network.node[9].core_layer 	interests[9] 	430419
scalar geant_cost_network.node[9].core_layer 	data[9] 	357692
scalar geant_cost_network.node[9].content_store 	p_hit[9] 	0.16383802759637
scalar geant_cost_network.node[9].content_store 	hits[9] 	70519
scalar geant_cost_network.node[9].content_store 	misses[9] 	359900
scalar geant_cost_network.node[9].content_store 	decision_yes[9] 	1635
scalar geant_cost_network.node[9].content_store 	decision_no[9] 	356057
scalar geant_cost_network.node[9].content_store 	decision_ratio[9] 	0.0045709716739541
scalar geant_cost_network.node[9].content_store 	correction_factor[9] 	0.0027225701061802
scalar geant_cost_network.node[9].content_store 	xi[9] 	1
scalar geant_cost_network.node[10].core_layer 	interests[10] 	187813
scalar geant_cost_network.node[10].core_layer 	data[10] 	176366
scalar geant_cost_network.node[10].content_store 	p_hit[10] 	0.055267739719828
scalar geant_cost_network.node[10].content_store 	hits[10] 	10380
scalar geant_cost_network.node[10].content_store 	misses[10] 	177433
scalar geant_cost_network.node[10].content_store 	decision_yes[10] 	758
scalar geant_cost_network.node[10].content_store 	decision_no[10] 	175608
scalar geant_cost_network.node[10].content_store 	decision_ratio[10] 	0.004297880543869
scalar geant_cost_network.node[10].content_store 	correction_factor[10] 	0.0027225701061802
scalar geant_cost_network.node[10].content_store 	xi[10] 	1
scalar geant_cost_network.node[11].core_layer 	interests[11] 	0
scalar geant_cost_network.node[11].core_layer 	data[11] 	0
scalar geant_cost_network.node[11].content_store 	p_hit[11] 	-nan
scalar geant_cost_network.node[11].content_store 	hits[11] 	0
scalar geant_cost_network.node[11].content_store 	misses[11] 	0
scalar geant_cost_network.node[11].content_store 	decision_yes[11] 	0
scalar geant_cost_network.node[11].content_store 	decision_no[11] 	0
scalar geant_cost_network.node[11].content_store 	decision_ratio[11] 	0
scalar geant_cost_network.node[11].content_store 	correction_factor[11] 	0.0027225701061802
scalar geant_cost_network.node[11].content_store 	xi[11] 	1
scalar geant_cost_network.node[12].core_layer 	interests[12] 	313745
scalar geant_cost_network.node[12].core_layer 	data[12] 	296272
scalar geant_cost_network.node[12].content_store 	p_hit[12] 	0.047506733175031
scalar geant_cost_network.node[12].content_store 	hits[12] 	14905
scalar geant_cost_network.node[12].content_store 	misses[12] 	298840
scalar geant_cost_network.node[12].content_store 	decision_yes[12] 	2166
scalar geant_cost_network.node[12].content_store 	decision_no[12] 	294106
scalar geant_cost_network.node[12].content_store 	decision_ratio[12] 	0.0073108494896582
scalar geant_cost_network.node[12].content_store 	correction_factor[12] 	0.0027225701061802
scalar geant_cost_network.node[12].content_store 	xi[12] 	1
scalar geant_cost_network.node[13].core_layer 	interests[13] 	8941
scalar geant_cost_network.node[13].core_layer 	data[13] 	8941
scalar geant_cost_network.node[13].content_store 	p_hit[13] 	0
scalar geant_cost_network.node[13].content_store 	hits[13] 	0
scalar geant_cost_network.node[13].content_store 	misses[13] 	8941
scalar geant_cost_network.node[13].content_store 	decision_yes[13] 	0
scalar geant_cost_network.node[13].content_store 	decision_no[13] 	8941
scalar geant_cost_network.node[13].content_store 	decision_ratio[13] 	0
scalar geant_cost_network.node[13].content_store 	correction_factor[13] 	0.0027225701061802
scalar geant_cost_network.node[13].content_store 	xi[13] 	1
scalar geant_cost_network.node[14].core_layer 	interests[14] 	65578
scalar geant_cost_network.node[14].core_layer 	data[14] 	50400
scalar geant_cost_network.node[14].content_store 	p_hit[14] 	0.23146482051908
scalar geant_cost_network.node[14].content_store 	hits[14] 	15179
scalar geant_cost_network.node[14].content_store 	misses[14] 	50399
scalar geant_cost_network.node[14].content_store 	decision_yes[14] 	699
scalar geant_cost_network.node[14].content_store 	decision_no[14] 	49701
scalar geant_cost_network.node[14].content_store 	decision_ratio[14] 	0.013869047619048
scalar geant_cost_network.node[14].content_store 	correction_factor[14] 	0.0027225701061802
scalar geant_cost_network.node[14].content_store 	xi[14] 	1
scalar geant_cost_network.node[15].core_layer 	interests[15] 	0
scalar geant_cost_network.node[15].core_layer 	data[15] 	0
scalar geant_cost_network.node[15].content_store 	p_hit[15] 	-nan
scalar geant_cost_network.node[15].content_store 	hits[15] 	0
scalar geant_cost_network.node[15].content_store 	misses[15] 	0
scalar geant_cost_network.node[15].content_store 	decision_yes[15] 	0
scalar geant_cost_network.node[15].content_store 	decision_no[15] 	0
scalar geant_cost_network.node[15].content_store 	decision_ratio[15] 	0
scalar geant_cost_network.node[15].content_store 	correction_factor[15] 	0.0027225701061802
scalar geant_cost_network.node[15].content_store 	xi[15] 	1
scalar geant_cost_network.node[16].core_layer 	interests[16] 	0
scalar geant_cost_network.node[16].core_layer 	data[16] 	0
scalar geant_cost_network.node[16].content_store 	p_hit[16] 	-nan
scalar geant_cost_network.node[16].content_store 	hits[16] 	0
scalar geant_cost_network.node[16].content_store 	misses[16] 	0
scalar geant_cost_network.node[16].content_store 	decision_yes[16] 	0
scalar geant_cost_network.node[16].content_store 	decision_no[16] 	0
scalar geant_cost_network.node[16].content_store 	decision_ratio[16] 	0
scalar geant_cost_network.node[16].content_store 	correction_factor[16] 	0.0027225701061802
scalar geant_cost_network.node[16].content_store 	xi[16] 	1
scalar geant_cost_network.node[17].core_layer 	interests[17] 	0
scalar geant_cost_network.node[17].core_layer 	data[17] 	0
scalar geant_cost_network.node[17].content_store 	p_hit[17] 	-nan
scalar geant_cost_network.node[17].content_store 	hits[17] 	0
scalar geant_cost_network.node[17].content_store 	misses[17] 	0
scalar geant_cost_network.node[17].content_store 	decision_yes[17] 	0
scalar geant_cost_network.node[17].content_store 	decision_no[17] 	0
scalar geant_cost_network.node[17].content_store 	decision_ratio[17] 	0
scalar geant_cost_network.node[17].content_store 	correction_factor[17] 	0.0027225701061802
scalar geant_cost_network.node[17].content_store 	xi[17] 	1
scalar geant_cost_network.node[18].core_layer 	interests[18] 	145998
scalar geant_cost_network.node[18].core_layer 	data[18] 	141643
scalar geant_cost_network.node[18].content_store 	p_hit[18] 	0.029801778106549
scalar geant_cost_network.node[18].content_store 	hits[18] 	4351
scalar geant_cost_network.node[18].content_store 	misses[18] 	141647
scalar geant_cost_network.node[18].content_store 	decision_yes[18] 	80
scalar geant_cost_network.node[18].content_store 	decision_no[18] 	141563
scalar geant_cost_network.node[18].content_store 	decision_ratio[18] 	0.0005648002372161
scalar geant_cost_network.node[18].content_store 	correction_factor[18] 	0.0027225701061802
scalar geant_cost_network.node[18].content_store 	xi[18] 	1
scalar geant_cost_network.node[19].core_layer 	interests[19] 	0
scalar geant_cost_network.node[19].core_layer 	data[19] 	0
scalar geant_cost_network.node[19].content_store 	p_hit[19] 	-nan
scalar geant_cost_network.node[19].content_store 	hits[19] 	0
scalar geant_cost_network.node[19].content_store 	misses[19] 	0
scalar geant_cost_network.node[19].content_store 	decision_yes[19] 	0
scalar geant_cost_network.node[19].content_store 	decision_no[19] 	0
scalar geant_cost_network.node[19].content_store 	decision_ratio[19] 	0
scalar geant_cost_network.node[19].content_store 	correction_factor[19] 	0.0027225701061802
scalar geant_cost_network.node[19].content_store 	xi[19] 	1
scalar geant_cost_network.node[20].core_layer 	interests[20] 	192953
scalar geant_cost_network.node[20].core_layer 	data[20] 	169625
scalar geant_cost_network.node[20].content_store 	p_hit[20] 	0.11408477712189
scalar geant_cost_network.node[20].content_store 	hits[20] 	22013
scalar geant_cost_network.node[20].content_store 	misses[20] 	170940
scalar geant_cost_network.node[20].content_store 	decision_yes[20] 	788
scalar geant_cost_network.node[20].content_store 	decision_no[20] 	168837
scalar geant_cost_network.node[20].content_store 	decision_ratio[20] 	0.0046455416359617
scalar geant_cost_network.node[20].content_store 	correction_factor[20] 	0.0027225701061802
scalar geant_cost_network.node[20].content_store 	xi[20] 	1
scalar geant_cost_network.node[21].core_layer 	interests[21] 	164130
scalar geant_cost_network.node[21].core_layer 	data[21] 	130114
scalar geant_cost_network.node[21].content_store 	p_hit[21] 	0.20725035033205
scalar geant_cost_network.node[21].content_store 	hits[21] 	34016
scalar geant_cost_network.node[21].content_store 	misses[21] 	130114
scalar geant_cost_network.node[21].content_store 	decision_yes[21] 	3591
scalar geant_cost_network.node[21].content_store 	decision_no[21] 	126523
scalar geant_cost_network.node[21].content_store 	decision_ratio[21] 	0.027598874832839
scalar geant_cost_network.node[21].content_store 	correction_factor[21] 	0.0027225701061802
scalar geant_cost_network.node[21].content_store 	xi[21] 	1
scalar geant_cost_network.node[22].core_layer 	interests[22] 	270144
scalar geant_cost_network.node[22].core_layer 	repo_load[22] 	270144
scalar geant_cost_network.node[22].core_layer 	data[22] 	0
scalar geant_cost_network.node[22].content_store 	p_hit[22] 	0
scalar geant_cost_network.node[22].content_store 	hits[22] 	0
scalar geant_cost_network.node[22].content_store 	misses[22] 	270144
scalar geant_cost_network.node[22].content_store 	decision_yes[22] 	0
scalar geant_cost_network.node[22].content_store 	decision_no[22] 	270144
scalar geant_cost_network.node[22].content_store 	decision_ratio[22] 	0
scalar geant_cost_network.node[23].core_layer 	interests[23] 	135984
scalar geant_cost_network.node[23].core_layer 	repo_load[23] 	135984
scalar geant_cost_network.node[23].core_layer 	data[23] 	0
scalar geant_cost_network.node[23].content_store 	p_hit[23] 	0
scalar geant_cost_network.node[23].content_store 	hits[23] 	0
scalar geant_cost_network.node[23].content_store 	misses[23] 	135984
scalar geant_cost_network.node[23].content_store 	decision_yes[23] 	0
scalar geant_cost_network.node[23].content_store 	decision_no[23] 	135984
scalar geant_cost_network.node[23].content_store 	decision_ratio[23] 	0
scalar geant_cost_network.node[24].core_layer 	interests[24] 	130114
scalar geant_cost_network.node[24].core_layer 	repo_load[24] 	130114
scalar geant_cost_network.node[24].core_layer 	data[24] 	0
scalar geant_cost_network.node[24].content_store 	p_hit[24] 	0
scalar geant_cost_network.node[24].content_store 	hits[24] 	0
scalar geant_cost_network.node[24].content_store 	misses[24] 	130114
scalar geant_cost_network.node[24].content_store 	decision_yes[24] 	0
scalar geant_cost_network.node[24].content_store 	decision_no[24] 	130114
scalar geant_cost_network.node[24].content_store 	decision_ratio[24] 	0
scalar geant_cost_network.client[5] 	hdistance[5] 	3.3964463532789
scalar geant_cost_network.client[5] 	downloads[5] 	178352
scalar geant_cost_network.client[5] 	avg_time[5] 	0.009729956152
scalar geant_cost_network.client[5] 	interests_sent[5] 	179996
scalar geant_cost_network.client[9] 	hdistance[9] 	3.2763746001315
scalar geant_cost_network.client[9] 	downloads[9] 	179434
scalar geant_cost_network.client[9] 	avg_time[9] 	0.005084405155
scalar geant_cost_network.client[9] 	interests_sent[9] 	180189
scalar geant_cost_network.client[10] 	hdistance[10] 	4.2451730215123
scalar geant_cost_network.client[10] 	downloads[10] 	178735
scalar geant_cost_network.client[10] 	avg_time[10] 	0.00704140536
scalar geant_cost_network.client[10] 	interests_sent[10] 	179802
scalar geant_cost_network.client[12] 	hdistance[12] 	3.5747896540979
scalar geant_cost_network.client[12] 	downloads[12] 	179704
scalar geant_cost_network.client[12] 	avg_time[12] 	0.006068005031
scalar geant_cost_network.client[12] 	interests_sent[12] 	180381
scalar geant_cost_network.client[20] 	hdistance[20] 	3.8057695110603
scalar geant_cost_network.client[20] 	downloads[20] 	178386
scalar geant_cost_network.client[20] 	avg_time[20] 	0.007606980445
scalar geant_cost_network.client[20] 	interests_sent[20] 	179701
