version 2
run General-11-20140626-16:21:29-7223
attr D costprobprodcorr0.01
attr F nrr
attr R lru
attr a 1
attr configname General
attr csize 1e3
attr ctlg 1e5
attr datetime 20140626-16:21:29
attr experiment General
attr inifile omnetpp.ini
attr iterationvars "$net=geant_cost, $rep=10, $priceratiovalue=10, $weights=0.333_0.333_0.334, $lambda=100, $a=1, $ctlg=1e5, $F=nrr, $ttl=1000, $D=costprobprodcorr0.01, $xi=1, $R=lru, $csize=1e3, $pricebits=0, $mytime=1800"
attr iterationvars2 "$net=geant_cost, $rep=10, $priceratiovalue=10, $weights=0.333_0.333_0.334, $lambda=100, $a=1, $ctlg=1e5, $F=nrr, $ttl=1000, $D=costprobprodcorr0.01, $xi=1, $R=lru, $csize=1e3, $pricebits=0, $mytime=1800, $repetition=0"
attr lambda 100
attr measurement "$net=geant_cost, $rep=10, $priceratiovalue=10, $weights=0.333_0.333_0.334, $lambda=100, $a=1, $ctlg=1e5, $F=nrr, $ttl=1000, $D=costprobprodcorr0.01, $xi=1, $R=lru, $csize=1e3, $pricebits=0, $mytime=1800"
attr mytime 1800
attr net geant_cost
attr network "networks.${net=geant_cost, abilene_cost}_network"
attr pricebits 0
attr priceratiovalue 10
attr processid 7223
attr rep 10
attr repetition 0
attr replication #0
attr resultdir results
attr runnumber 11
attr seedset 10
attr ttl 1000
attr weights 0.333_0.333_0.334
attr xi 1

scalar . 	a 	1
scalar . 	csize 	1e3
scalar . 	ctlg 	1e5
scalar . 	lambda 	100
scalar . 	mytime 	1800
scalar . 	pricebits 	0
scalar . 	priceratiovalue 	10
scalar . 	rep 	10
scalar . 	ttl 	1000
scalar . 	xi 	1
scalar geant_cost_network.content_distribution 	repo-0 	22
scalar geant_cost_network.content_distribution 	repo-1 	23
scalar geant_cost_network.content_distribution 	repo-2 	24
scalar geant_cost_network.content_distribution 	client-0 	20
scalar geant_cost_network.content_distribution 	client-1 	10
scalar geant_cost_network.content_distribution 	client-2 	12
scalar geant_cost_network.content_distribution 	client-3 	9
scalar geant_cost_network.content_distribution 	client-4 	5
scalar geant_cost_network.content_distribution 	repo-0_card 	33053
scalar geant_cost_network.content_distribution 	repo-1_card 	33534
scalar geant_cost_network.content_distribution 	repo-2_card 	33413
scalar geant_cost_network.statistics 	repo_popularity[0] 	0.42335737931898
scalar geant_cost_network.statistics 	repo_popularity[1] 	0.27871951512344
scalar geant_cost_network.statistics 	repo_popularity[2] 	0.29792310555758
scalar geant_cost_network.statistics 	stabilization_time 	36060
scalar geant_cost_network.node[7].face$o[4].channel 	price[7] 	0
scalar geant_cost_network.node[7].face$o[4].channel 	represented_price[7] 	0
scalar geant_cost_network.node[8].face$o[3].channel 	price[8] 	0
scalar geant_cost_network.node[8].face$o[3].channel 	represented_price[8] 	0
scalar geant_cost_network.node[21].face$o[5].channel 	price[21] 	0
scalar geant_cost_network.node[21].face$o[5].channel 	represented_price[21] 	0
scalar geant_cost_network.node[22].face$o[1].channel 	price[22] 	0
scalar geant_cost_network.node[22].face$o[1].channel 	represented_price[22] 	0
scalar geant_cost_network.node[23].face$o[1].channel 	price[23] 	1
scalar geant_cost_network.node[23].face$o[1].channel 	represented_price[23] 	1
scalar geant_cost_network.node[24].face$o[1].channel 	price[24] 	10
scalar geant_cost_network.node[24].face$o[1].channel 	represented_price[24] 	10
scalar geant_cost_network.statistics 	p_hit 	0.064023320432411
scalar geant_cost_network.statistics 	interests 	153890.8
scalar geant_cost_network.statistics 	data 	117903.12
scalar geant_cost_network.statistics 	hdistance 	4.0368873454299
scalar geant_cost_network.statistics 	avg_time 	0.00792408865
scalar geant_cost_network.statistics 	downloads 	892366
scalar geant_cost_network.statistics 	total_cost 	1453158
scalar geant_cost_network.statistics 	total_replicas 	100000
scalar geant_cost_network.statistics 	inner_hit 	0.28087690476777
scalar geant_cost_network.statistics 	interests_sent 	899690
scalar geant_cost_network.node[0].core_layer 	interests[0] 	0
scalar geant_cost_network.node[0].core_layer 	data[0] 	0
scalar geant_cost_network.node[0].core_layer 	repo_int[0] 	641721
scalar geant_cost_network.node[0].content_store 	p_hit[0] 	-nan
scalar geant_cost_network.node[0].content_store 	hits[0] 	0
scalar geant_cost_network.node[0].content_store 	misses[0] 	0
scalar geant_cost_network.node[0].content_store 	decision_yes[0] 	0
scalar geant_cost_network.node[0].content_store 	decision_no[0] 	0
scalar geant_cost_network.node[0].content_store 	decision_ratio[0] 	0
scalar geant_cost_network.node[0].content_store 	correction_factor[0] 	0.0027225701061802
scalar geant_cost_network.node[0].content_store 	xi[0] 	1
scalar geant_cost_network.node[1].core_layer 	interests[1] 	0
scalar geant_cost_network.node[1].core_layer 	data[1] 	0
scalar geant_cost_network.node[1].content_store 	p_hit[1] 	-nan
scalar geant_cost_network.node[1].content_store 	hits[1] 	0
scalar geant_cost_network.node[1].content_store 	misses[1] 	0
scalar geant_cost_network.node[1].content_store 	decision_yes[1] 	0
scalar geant_cost_network.node[1].content_store 	decision_no[1] 	0
scalar geant_cost_network.node[1].content_store 	decision_ratio[1] 	0
scalar geant_cost_network.node[1].content_store 	correction_factor[1] 	0.0027225701061802
scalar geant_cost_network.node[1].content_store 	xi[1] 	1
scalar geant_cost_network.node[2].core_layer 	interests[2] 	0
scalar geant_cost_network.node[2].core_layer 	data[2] 	0
scalar geant_cost_network.node[2].content_store 	p_hit[2] 	-nan
scalar geant_cost_network.node[2].content_store 	hits[2] 	0
scalar geant_cost_network.node[2].content_store 	misses[2] 	0
scalar geant_cost_network.node[2].content_store 	decision_yes[2] 	0
scalar geant_cost_network.node[2].content_store 	decision_no[2] 	0
scalar geant_cost_network.node[2].content_store 	decision_ratio[2] 	0
scalar geant_cost_network.node[2].content_store 	correction_factor[2] 	0.0027225701061802
scalar geant_cost_network.node[2].content_store 	xi[2] 	1
scalar geant_cost_network.node[3].core_layer 	interests[3] 	242638
scalar geant_cost_network.node[3].core_layer 	data[3] 	236663
scalar geant_cost_network.node[3].content_store 	p_hit[3] 	0.024542734443904
scalar geant_cost_network.node[3].content_store 	hits[3] 	5955
scalar geant_cost_network.node[3].content_store 	misses[3] 	236683
scalar geant_cost_network.node[3].content_store 	decision_yes[3] 	2017
scalar geant_cost_network.node[3].content_store 	decision_no[3] 	234646
scalar geant_cost_network.node[3].content_store 	decision_ratio[3] 	0.0085226672525912
scalar geant_cost_network.node[3].content_store 	correction_factor[3] 	0.0027225701061802
scalar geant_cost_network.node[3].content_store 	xi[3] 	1
scalar geant_cost_network.node[4].core_layer 	interests[4] 	338750
scalar geant_cost_network.node[4].core_layer 	data[4] 	313536
scalar geant_cost_network.node[4].content_store 	p_hit[4] 	0.072628782287823
scalar geant_cost_network.node[4].content_store 	hits[4] 	24603
scalar geant_cost_network.node[4].content_store 	misses[4] 	314147
scalar geant_cost_network.node[4].content_store 	decision_yes[4] 	2208
scalar geant_cost_network.node[4].content_store 	decision_no[4] 	311328
scalar geant_cost_network.node[4].content_store 	decision_ratio[4] 	0.0070422535211268
scalar geant_cost_network.node[4].content_store 	correction_factor[4] 	0.0027225701061802
scalar geant_cost_network.node[4].content_store 	xi[4] 	1
scalar geant_cost_network.node[5].core_layer 	interests[5] 	201232
scalar geant_cost_network.node[5].core_layer 	data[5] 	178278
scalar geant_cost_network.node[5].content_store 	p_hit[5] 	0.10536097638547
scalar geant_cost_network.node[5].content_store 	hits[5] 	21202
scalar geant_cost_network.node[5].content_store 	misses[5] 	180030
scalar geant_cost_network.node[5].content_store 	decision_yes[5] 	758
scalar geant_cost_network.node[5].content_store 	decision_no[5] 	177520
scalar geant_cost_network.node[5].content_store 	decision_ratio[5] 	0.0042517865356354
scalar geant_cost_network.node[5].content_store 	correction_factor[5] 	0.0027225701061802
scalar geant_cost_network.node[5].content_store 	xi[5] 	1
scalar geant_cost_network.node[6].core_layer 	interests[6] 	124217
scalar geant_cost_network.node[6].core_layer 	data[6] 	113370
scalar geant_cost_network.node[6].content_store 	p_hit[6] 	0.087322991216983
scalar geant_cost_network.node[6].content_store 	hits[6] 	10847
scalar geant_cost_network.node[6].content_store 	misses[6] 	113370
scalar geant_cost_network.node[6].content_store 	decision_yes[6] 	87
scalar geant_cost_network.node[6].content_store 	decision_no[6] 	113283
scalar geant_cost_network.node[6].content_store 	decision_ratio[6] 	0.00076739878274676
scalar geant_cost_network.node[6].content_store 	correction_factor[6] 	0.0027225701061802
scalar geant_cost_network.node[6].content_store 	xi[6] 	1
scalar geant_cost_network.node[7].core_layer 	interests[7] 	479291
scalar geant_cost_network.node[7].core_layer 	data[7] 	443882
scalar geant_cost_network.node[7].content_store 	p_hit[7] 	0.073877873776057
scalar geant_cost_network.node[7].content_store 	hits[7] 	35409
scalar geant_cost_network.node[7].content_store 	misses[7] 	443882
scalar geant_cost_network.node[7].content_store 	decision_yes[7] 	149
scalar geant_cost_network.node[7].content_store 	decision_no[7] 	443733
scalar geant_cost_network.node[7].content_store 	decision_ratio[7] 	0.00033567479645491
scalar geant_cost_network.node[7].content_store 	correction_factor[7] 	0.0027225701061802
scalar geant_cost_network.node[7].content_store 	xi[7] 	1
scalar geant_cost_network.node[8].core_layer 	interests[8] 	330892
scalar geant_cost_network.node[8].core_layer 	data[8] 	307480
scalar geant_cost_network.node[8].content_store 	p_hit[8] 	0.070754203788547
scalar geant_cost_network.node[8].content_store 	hits[8] 	23412
scalar geant_cost_network.node[8].content_store 	misses[8] 	307480
scalar geant_cost_network.node[8].content_store 	decision_yes[8] 	396
scalar geant_cost_network.node[8].content_store 	decision_no[8] 	307084
scalar geant_cost_network.node[8].content_store 	decision_ratio[8] 	0.0012878886431638
scalar geant_cost_network.node[8].content_store 	correction_factor[8] 	0.0027225701061802
scalar geant_cost_network.node[8].content_store 	xi[8] 	1
scalar geant_cost_network.node[9].core_layer 	interests[9] 	399448
scalar geant_cost_network.node[9].core_layer 	data[9] 	383592
scalar geant_cost_network.node[9].content_store 	p_hit[9] 	0.032004165748733
scalar geant_cost_network.node[9].content_store 	hits[9] 	12784
scalar geant_cost_network.node[9].content_store 	misses[9] 	386664
scalar geant_cost_network.node[9].content_store 	decision_yes[9] 	1711
scalar geant_cost_network.node[9].content_store 	decision_no[9] 	381881
scalar geant_cost_network.node[9].content_store 	decision_ratio[9] 	0.0044604684143569
scalar geant_cost_network.node[9].content_store 	correction_factor[9] 	0.0027225701061802
scalar geant_cost_network.node[9].content_store 	xi[9] 	1
scalar geant_cost_network.node[10].core_layer 	interests[10] 	188365
scalar geant_cost_network.node[10].core_layer 	data[10] 	175813
scalar geant_cost_network.node[10].content_store 	p_hit[10] 	0.059182969235261
scalar geant_cost_network.node[10].content_store 	hits[10] 	11148
scalar geant_cost_network.node[10].content_store 	misses[10] 	177217
scalar geant_cost_network.node[10].content_store 	decision_yes[10] 	740
scalar geant_cost_network.node[10].content_store 	decision_no[10] 	175073
scalar geant_cost_network.node[10].content_store 	decision_ratio[10] 	0.0042090175356771
scalar geant_cost_network.node[10].content_store 	correction_factor[10] 	0.0027225701061802
scalar geant_cost_network.node[10].content_store 	xi[10] 	1
scalar geant_cost_network.node[11].core_layer 	interests[11] 	0
scalar geant_cost_network.node[11].core_layer 	data[11] 	0
scalar geant_cost_network.node[11].content_store 	p_hit[11] 	-nan
scalar geant_cost_network.node[11].content_store 	hits[11] 	0
scalar geant_cost_network.node[11].content_store 	misses[11] 	0
scalar geant_cost_network.node[11].content_store 	decision_yes[11] 	0
scalar geant_cost_network.node[11].content_store 	decision_no[11] 	0
scalar geant_cost_network.node[11].content_store 	decision_ratio[11] 	0
scalar geant_cost_network.node[11].content_store 	correction_factor[11] 	0.0027225701061802
scalar geant_cost_network.node[11].content_store 	xi[11] 	1
scalar geant_cost_network.node[12].core_layer 	interests[12] 	296342
scalar geant_cost_network.node[12].core_layer 	data[12] 	283422
scalar geant_cost_network.node[12].content_store 	p_hit[12] 	0.033032779693732
scalar geant_cost_network.node[12].content_store 	hits[12] 	9789
scalar geant_cost_network.node[12].content_store 	misses[12] 	286553
scalar geant_cost_network.node[12].content_store 	decision_yes[12] 	2171
scalar geant_cost_network.node[12].content_store 	decision_no[12] 	281251
scalar geant_cost_network.node[12].content_store 	decision_ratio[12] 	0.0076599558255887
scalar geant_cost_network.node[12].content_store 	correction_factor[12] 	0.0027225701061802
scalar geant_cost_network.node[12].content_store 	xi[12] 	1
scalar geant_cost_network.node[13].core_layer 	interests[13] 	13863
scalar geant_cost_network.node[13].core_layer 	data[13] 	13863
scalar geant_cost_network.node[13].content_store 	p_hit[13] 	0
scalar geant_cost_network.node[13].content_store 	hits[13] 	0
scalar geant_cost_network.node[13].content_store 	misses[13] 	13863
scalar geant_cost_network.node[13].content_store 	decision_yes[13] 	0
scalar geant_cost_network.node[13].content_store 	decision_no[13] 	13863
scalar geant_cost_network.node[13].content_store 	decision_ratio[13] 	0
scalar geant_cost_network.node[13].content_store 	correction_factor[13] 	0.0027225701061802
scalar geant_cost_network.node[13].content_store 	xi[13] 	1
scalar geant_cost_network.node[14].core_layer 	interests[14] 	72049
scalar geant_cost_network.node[14].core_layer 	data[14] 	47043
scalar geant_cost_network.node[14].content_store 	p_hit[14] 	0.34706935557745
scalar geant_cost_network.node[14].content_store 	hits[14] 	25006
scalar geant_cost_network.node[14].content_store 	misses[14] 	47043
scalar geant_cost_network.node[14].content_store 	decision_yes[14] 	735
scalar geant_cost_network.node[14].content_store 	decision_no[14] 	46308
scalar geant_cost_network.node[14].content_store 	decision_ratio[14] 	0.015624003571201
scalar geant_cost_network.node[14].content_store 	correction_factor[14] 	0.0027225701061802
scalar geant_cost_network.node[14].content_store 	xi[14] 	1
scalar geant_cost_network.node[15].core_layer 	interests[15] 	0
scalar geant_cost_network.node[15].core_layer 	data[15] 	0
scalar geant_cost_network.node[15].content_store 	p_hit[15] 	-nan
scalar geant_cost_network.node[15].content_store 	hits[15] 	0
scalar geant_cost_network.node[15].content_store 	misses[15] 	0
scalar geant_cost_network.node[15].content_store 	decision_yes[15] 	0
scalar geant_cost_network.node[15].content_store 	decision_no[15] 	0
scalar geant_cost_network.node[15].content_store 	decision_ratio[15] 	0
scalar geant_cost_network.node[15].content_store 	correction_factor[15] 	0.0027225701061802
scalar geant_cost_network.node[15].content_store 	xi[15] 	1
scalar geant_cost_network.node[16].core_layer 	interests[16] 	0
scalar geant_cost_network.node[16].core_layer 	data[16] 	0
scalar geant_cost_network.node[16].content_store 	p_hit[16] 	-nan
scalar geant_cost_network.node[16].content_store 	hits[16] 	0
scalar geant_cost_network.node[16].content_store 	misses[16] 	0
scalar geant_cost_network.node[16].content_store 	decision_yes[16] 	0
scalar geant_cost_network.node[16].content_store 	decision_no[16] 	0
scalar geant_cost_network.node[16].content_store 	decision_ratio[16] 	0
scalar geant_cost_network.node[16].content_store 	correction_factor[16] 	0.0027225701061802
scalar geant_cost_network.node[16].content_store 	xi[16] 	1
scalar geant_cost_network.node[17].core_layer 	interests[17] 	0
scalar geant_cost_network.node[17].core_layer 	data[17] 	0
scalar geant_cost_network.node[17].content_store 	p_hit[17] 	-nan
scalar geant_cost_network.node[17].content_store 	hits[17] 	0
scalar geant_cost_network.node[17].content_store 	misses[17] 	0
scalar geant_cost_network.node[17].content_store 	decision_yes[17] 	0
scalar geant_cost_network.node[17].content_store 	decision_no[17] 	0
scalar geant_cost_network.node[17].content_store 	decision_ratio[17] 	0
scalar geant_cost_network.node[17].content_store 	correction_factor[17] 	0.0027225701061802
scalar geant_cost_network.node[17].content_store 	xi[17] 	1
scalar geant_cost_network.node[18].core_layer 	interests[18] 	148915
scalar geant_cost_network.node[18].core_layer 	data[18] 	143425
scalar geant_cost_network.node[18].content_store 	p_hit[18] 	0.036859953664842
scalar geant_cost_network.node[18].content_store 	hits[18] 	5489
scalar geant_cost_network.node[18].content_store 	misses[18] 	143426
scalar geant_cost_network.node[18].content_store 	decision_yes[18] 	81
scalar geant_cost_network.node[18].content_store 	decision_no[18] 	143344
scalar geant_cost_network.node[18].content_store 	decision_ratio[18] 	0.00056475509848353
scalar geant_cost_network.node[18].content_store 	correction_factor[18] 	0.0027225701061802
scalar geant_cost_network.node[18].content_store 	xi[18] 	1
scalar geant_cost_network.node[19].core_layer 	interests[19] 	0
scalar geant_cost_network.node[19].core_layer 	data[19] 	0
scalar geant_cost_network.node[19].content_store 	p_hit[19] 	-nan
scalar geant_cost_network.node[19].content_store 	hits[19] 	0
scalar geant_cost_network.node[19].content_store 	misses[19] 	0
scalar geant_cost_network.node[19].content_store 	decision_yes[19] 	0
scalar geant_cost_network.node[19].content_store 	decision_no[19] 	0
scalar geant_cost_network.node[19].content_store 	decision_ratio[19] 	0
scalar geant_cost_network.node[19].content_store 	correction_factor[19] 	0.0027225701061802
scalar geant_cost_network.node[19].content_store 	xi[19] 	1
scalar geant_cost_network.node[20].core_layer 	interests[20] 	188316
scalar geant_cost_network.node[20].core_layer 	data[20] 	175543
scalar geant_cost_network.node[20].content_store 	p_hit[20] 	0.058985959769749
scalar geant_cost_network.node[20].content_store 	hits[20] 	11108
scalar geant_cost_network.node[20].content_store 	misses[20] 	177208
scalar geant_cost_network.node[20].content_store 	decision_yes[20] 	835
scalar geant_cost_network.node[20].content_store 	decision_no[20] 	174708
scalar geant_cost_network.node[20].content_store 	decision_ratio[20] 	0.0047566693060959
scalar geant_cost_network.node[20].content_store 	correction_factor[20] 	0.0027225701061802
scalar geant_cost_network.node[20].content_store 	xi[20] 	1
scalar geant_cost_network.node[21].core_layer 	interests[21] 	181231
scalar geant_cost_network.node[21].core_layer 	data[21] 	131668
scalar geant_cost_network.node[21].content_store 	p_hit[21] 	0.27347970269987
scalar geant_cost_network.node[21].content_store 	hits[21] 	49563
scalar geant_cost_network.node[21].content_store 	misses[21] 	131668
scalar geant_cost_network.node[21].content_store 	decision_yes[21] 	3576
scalar geant_cost_network.node[21].content_store 	decision_no[21] 	128092
scalar geant_cost_network.node[21].content_store 	decision_ratio[21] 	0.027159218640824
scalar geant_cost_network.node[21].content_store 	correction_factor[21] 	0.0027225701061802
scalar geant_cost_network.node[21].content_store 	xi[21] 	1
scalar geant_cost_network.node[22].core_layer 	interests[22] 	373575
scalar geant_cost_network.node[22].core_layer 	repo_load[22] 	373575
scalar geant_cost_network.node[22].core_layer 	data[22] 	0
scalar geant_cost_network.node[22].content_store 	p_hit[22] 	0
scalar geant_cost_network.node[22].content_store 	hits[22] 	0
scalar geant_cost_network.node[22].content_store 	misses[22] 	373575
scalar geant_cost_network.node[22].content_store 	decision_yes[22] 	0
scalar geant_cost_network.node[22].content_store 	decision_no[22] 	373575
scalar geant_cost_network.node[22].content_store 	decision_ratio[22] 	0
scalar geant_cost_network.node[23].core_layer 	interests[23] 	136478
scalar geant_cost_network.node[23].core_layer 	repo_load[23] 	136478
scalar geant_cost_network.node[23].core_layer 	data[23] 	0
scalar geant_cost_network.node[23].content_store 	p_hit[23] 	0
scalar geant_cost_network.node[23].content_store 	hits[23] 	0
scalar geant_cost_network.node[23].content_store 	misses[23] 	136478
scalar geant_cost_network.node[23].content_store 	decision_yes[23] 	0
scalar geant_cost_network.node[23].content_store 	decision_no[23] 	136478
scalar geant_cost_network.node[23].content_store 	decision_ratio[23] 	0
scalar geant_cost_network.node[24].core_layer 	interests[24] 	131668
scalar geant_cost_network.node[24].core_layer 	repo_load[24] 	131668
scalar geant_cost_network.node[24].core_layer 	data[24] 	0
scalar geant_cost_network.node[24].content_store 	p_hit[24] 	0
scalar geant_cost_network.node[24].content_store 	hits[24] 	0
scalar geant_cost_network.node[24].content_store 	misses[24] 	131668
scalar geant_cost_network.node[24].content_store 	decision_yes[24] 	0
scalar geant_cost_network.node[24].content_store 	decision_no[24] 	131668
scalar geant_cost_network.node[24].content_store 	decision_ratio[24] 	0
scalar geant_cost_network.client[5] 	hdistance[5] 	3.5476331559412
scalar geant_cost_network.client[5] 	downloads[5] 	178888
scalar geant_cost_network.client[5] 	avg_time[5] 	0.009614258376
scalar geant_cost_network.client[5] 	interests_sent[5] 	180638
scalar geant_cost_network.client[9] 	hdistance[9] 	3.7285647755901
scalar geant_cost_network.client[9] 	downloads[9] 	178223
scalar geant_cost_network.client[9] 	avg_time[9] 	0.006398222031
scalar geant_cost_network.client[9] 	interests_sent[9] 	179337
scalar geant_cost_network.client[10] 	hdistance[10] 	4.704093245948
scalar geant_cost_network.client[10] 	downloads[10] 	178367
scalar geant_cost_network.client[10] 	avg_time[10] 	0.008314447369
scalar geant_cost_network.client[10] 	interests_sent[10] 	179771
scalar geant_cost_network.client[12] 	hdistance[12] 	4.0869526222561
scalar geant_cost_network.client[12] 	downloads[12] 	178396
scalar geant_cost_network.client[12] 	avg_time[12] 	0.007484476594
scalar geant_cost_network.client[12] 	interests_sent[12] 	179787
scalar geant_cost_network.client[20] 	hdistance[20] 	4.1171929274142
scalar geant_cost_network.client[20] 	downloads[20] 	178492
scalar geant_cost_network.client[20] 	avg_time[20] 	0.007809038881
scalar geant_cost_network.client[20] 	interests_sent[20] 	180157
