version 2
run General-19-20140626-16:52:27-16627
attr D costprobprodcorr0.01
attr F nrr
attr R lru
attr a 1
attr configname General
attr csize 1e3
attr ctlg 1e5
attr datetime 20140626-16:52:27
attr experiment General
attr inifile omnetpp.ini
attr iterationvars "$net=geant_cost, $rep=3, $priceratiovalue=10, $weights=0.333_0.333_0.334, $lambda=100, $a=1, $ctlg=1e5, $F=nrr, $ttl=1000, $D=costprobprodcorr0.01, $xi=1, $R=lru, $csize=1e3, $pricebits=0, $mytime=1800"
attr iterationvars2 "$net=geant_cost, $rep=3, $priceratiovalue=10, $weights=0.333_0.333_0.334, $lambda=100, $a=1, $ctlg=1e5, $F=nrr, $ttl=1000, $D=costprobprodcorr0.01, $xi=1, $R=lru, $csize=1e3, $pricebits=0, $mytime=1800, $repetition=0"
attr lambda 100
attr measurement "$net=geant_cost, $rep=3, $priceratiovalue=10, $weights=0.333_0.333_0.334, $lambda=100, $a=1, $ctlg=1e5, $F=nrr, $ttl=1000, $D=costprobprodcorr0.01, $xi=1, $R=lru, $csize=1e3, $pricebits=0, $mytime=1800"
attr mytime 1800
attr net geant_cost
attr network "networks.${net=geant_cost, abilene_cost}_network"
attr pricebits 0
attr priceratiovalue 10
attr processid 16627
attr rep 3
attr repetition 0
attr replication #0
attr resultdir results
attr runnumber 19
attr seedset 3
attr ttl 1000
attr weights 0.333_0.333_0.334
attr xi 1

scalar . 	a 	1
scalar . 	csize 	1e3
scalar . 	ctlg 	1e5
scalar . 	lambda 	100
scalar . 	mytime 	1800
scalar . 	pricebits 	0
scalar . 	priceratiovalue 	10
scalar . 	rep 	3
scalar . 	ttl 	1000
scalar . 	xi 	1
scalar geant_cost_network.content_distribution 	repo-0 	22
scalar geant_cost_network.content_distribution 	repo-1 	23
scalar geant_cost_network.content_distribution 	repo-2 	24
scalar geant_cost_network.content_distribution 	client-0 	20
scalar geant_cost_network.content_distribution 	client-1 	10
scalar geant_cost_network.content_distribution 	client-2 	12
scalar geant_cost_network.content_distribution 	client-3 	9
scalar geant_cost_network.content_distribution 	client-4 	5
scalar geant_cost_network.content_distribution 	repo-0_card 	33496
scalar geant_cost_network.content_distribution 	repo-1_card 	33170
scalar geant_cost_network.content_distribution 	repo-2_card 	33334
scalar geant_cost_network.statistics 	repo_popularity[0] 	0.34985511604573
scalar geant_cost_network.statistics 	repo_popularity[1] 	0.30142619076767
scalar geant_cost_network.statistics 	repo_popularity[2] 	0.3487186931866
scalar geant_cost_network.statistics 	stabilization_time 	36060
scalar geant_cost_network.node[7].face$o[4].channel 	price[7] 	0
scalar geant_cost_network.node[7].face$o[4].channel 	represented_price[7] 	0
scalar geant_cost_network.node[8].face$o[3].channel 	price[8] 	0
scalar geant_cost_network.node[8].face$o[3].channel 	represented_price[8] 	0
scalar geant_cost_network.node[21].face$o[5].channel 	price[21] 	0
scalar geant_cost_network.node[21].face$o[5].channel 	represented_price[21] 	0
scalar geant_cost_network.node[22].face$o[1].channel 	price[22] 	0
scalar geant_cost_network.node[22].face$o[1].channel 	represented_price[22] 	0
scalar geant_cost_network.node[23].face$o[1].channel 	price[23] 	1
scalar geant_cost_network.node[23].face$o[1].channel 	represented_price[23] 	1
scalar geant_cost_network.node[24].face$o[1].channel 	price[24] 	10
scalar geant_cost_network.node[24].face$o[1].channel 	represented_price[24] 	10
scalar geant_cost_network.statistics 	p_hit 	0.081578852564279
scalar geant_cost_network.statistics 	interests 	151003.84
scalar geant_cost_network.statistics 	data 	115030.76
scalar geant_cost_network.statistics 	hdistance 	3.9075358138739
scalar geant_cost_network.statistics 	avg_time 	0.00719955472
scalar geant_cost_network.statistics 	downloads 	891441
scalar geant_cost_network.statistics 	total_cost 	1435269
scalar geant_cost_network.statistics 	total_replicas 	100000
scalar geant_cost_network.statistics 	inner_hit 	0.35480530960546
scalar geant_cost_network.statistics 	interests_sent 	899328
scalar geant_cost_network.node[0].core_layer 	interests[0] 	0
scalar geant_cost_network.node[0].core_layer 	data[0] 	0
scalar geant_cost_network.node[0].core_layer 	repo_int[0] 	575153
scalar geant_cost_network.node[0].content_store 	p_hit[0] 	-nan
scalar geant_cost_network.node[0].content_store 	hits[0] 	0
scalar geant_cost_network.node[0].content_store 	misses[0] 	0
scalar geant_cost_network.node[0].content_store 	decision_yes[0] 	0
scalar geant_cost_network.node[0].content_store 	decision_no[0] 	0
scalar geant_cost_network.node[0].content_store 	decision_ratio[0] 	0
scalar geant_cost_network.node[0].content_store 	correction_factor[0] 	0.0027225701061802
scalar geant_cost_network.node[0].content_store 	xi[0] 	1
scalar geant_cost_network.node[1].core_layer 	interests[1] 	0
scalar geant_cost_network.node[1].core_layer 	data[1] 	0
scalar geant_cost_network.node[1].content_store 	p_hit[1] 	-nan
scalar geant_cost_network.node[1].content_store 	hits[1] 	0
scalar geant_cost_network.node[1].content_store 	misses[1] 	0
scalar geant_cost_network.node[1].content_store 	decision_yes[1] 	0
scalar geant_cost_network.node[1].content_store 	decision_no[1] 	0
scalar geant_cost_network.node[1].content_store 	decision_ratio[1] 	0
scalar geant_cost_network.node[1].content_store 	correction_factor[1] 	0.0027225701061802
scalar geant_cost_network.node[1].content_store 	xi[1] 	1
scalar geant_cost_network.node[2].core_layer 	interests[2] 	0
scalar geant_cost_network.node[2].core_layer 	data[2] 	0
scalar geant_cost_network.node[2].content_store 	p_hit[2] 	-nan
scalar geant_cost_network.node[2].content_store 	hits[2] 	0
scalar geant_cost_network.node[2].content_store 	misses[2] 	0
scalar geant_cost_network.node[2].content_store 	decision_yes[2] 	0
scalar geant_cost_network.node[2].content_store 	decision_no[2] 	0
scalar geant_cost_network.node[2].content_store 	decision_ratio[2] 	0
scalar geant_cost_network.node[2].content_store 	correction_factor[2] 	0.0027225701061802
scalar geant_cost_network.node[2].content_store 	xi[2] 	1
scalar geant_cost_network.node[3].core_layer 	interests[3] 	265151
scalar geant_cost_network.node[3].core_layer 	data[3] 	249078
scalar geant_cost_network.node[3].content_store 	p_hit[3] 	0.060550403355069
scalar geant_cost_network.node[3].content_store 	hits[3] 	16055
scalar geant_cost_network.node[3].content_store 	misses[3] 	249096
scalar geant_cost_network.node[3].content_store 	decision_yes[3] 	2060
scalar geant_cost_network.node[3].content_store 	decision_no[3] 	247018
scalar geant_cost_network.node[3].content_store 	decision_ratio[3] 	0.0082705016099374
scalar geant_cost_network.node[3].content_store 	correction_factor[3] 	0.0027225701061802
scalar geant_cost_network.node[3].content_store 	xi[3] 	1
scalar geant_cost_network.node[4].core_layer 	interests[4] 	332551
scalar geant_cost_network.node[4].core_layer 	data[4] 	309218
scalar geant_cost_network.node[4].content_store 	p_hit[4] 	0.069622403781676
scalar geant_cost_network.node[4].content_store 	hits[4] 	23153
scalar geant_cost_network.node[4].content_store 	misses[4] 	309398
scalar geant_cost_network.node[4].content_store 	decision_yes[4] 	2239
scalar geant_cost_network.node[4].content_store 	decision_no[4] 	306978
scalar geant_cost_network.node[4].content_store 	decision_ratio[4] 	0.0072408696805156
scalar geant_cost_network.node[4].content_store 	correction_factor[4] 	0.0027225701061802
scalar geant_cost_network.node[4].content_store 	xi[4] 	1
scalar geant_cost_network.node[5].core_layer 	interests[5] 	204699
scalar geant_cost_network.node[5].core_layer 	data[5] 	178075
scalar geant_cost_network.node[5].content_store 	p_hit[5] 	0.11957068671562
scalar geant_cost_network.node[5].content_store 	hits[5] 	24476
scalar geant_cost_network.node[5].content_store 	misses[5] 	180223
scalar geant_cost_network.node[5].content_store 	decision_yes[5] 	775
scalar geant_cost_network.node[5].content_store 	decision_no[5] 	177300
scalar geant_cost_network.node[5].content_store 	decision_ratio[5] 	0.0043520988347606
scalar geant_cost_network.node[5].content_store 	correction_factor[5] 	0.0027225701061802
scalar geant_cost_network.node[5].content_store 	xi[5] 	1
scalar geant_cost_network.node[6].core_layer 	interests[6] 	109686
scalar geant_cost_network.node[6].core_layer 	data[6] 	97319
scalar geant_cost_network.node[6].content_store 	p_hit[6] 	0.11274912021589
scalar geant_cost_network.node[6].content_store 	hits[6] 	12367
scalar geant_cost_network.node[6].content_store 	misses[6] 	97319
scalar geant_cost_network.node[6].content_store 	decision_yes[6] 	80
scalar geant_cost_network.node[6].content_store 	decision_no[6] 	97239
scalar geant_cost_network.node[6].content_store 	decision_ratio[6] 	0.0008220388618872
scalar geant_cost_network.node[6].content_store 	correction_factor[6] 	0.0027225701061802
scalar geant_cost_network.node[6].content_store 	xi[6] 	1
scalar geant_cost_network.node[7].core_layer 	interests[7] 	404443
scalar geant_cost_network.node[7].core_layer 	data[7] 	389274
scalar geant_cost_network.node[7].content_store 	p_hit[7] 	0.037466342599575
scalar geant_cost_network.node[7].content_store 	hits[7] 	15153
scalar geant_cost_network.node[7].content_store 	misses[7] 	389290
scalar geant_cost_network.node[7].content_store 	decision_yes[7] 	138
scalar geant_cost_network.node[7].content_store 	decision_no[7] 	389136
scalar geant_cost_network.node[7].content_store 	decision_ratio[7] 	0.00035450608054995
scalar geant_cost_network.node[7].content_store 	correction_factor[7] 	0.0027225701061802
scalar geant_cost_network.node[7].content_store 	xi[7] 	1
scalar geant_cost_network.node[8].core_layer 	interests[8] 	307292
scalar geant_cost_network.node[8].core_layer 	data[8] 	276505
scalar geant_cost_network.node[8].content_store 	p_hit[8] 	0.10018809471122
scalar geant_cost_network.node[8].content_store 	hits[8] 	30787
scalar geant_cost_network.node[8].content_store 	misses[8] 	276505
scalar geant_cost_network.node[8].content_store 	decision_yes[8] 	320
scalar geant_cost_network.node[8].content_store 	decision_no[8] 	276185
scalar geant_cost_network.node[8].content_store 	decision_ratio[8] 	0.0011573027612521
scalar geant_cost_network.node[8].content_store 	correction_factor[8] 	0.0027225701061802
scalar geant_cost_network.node[8].content_store 	xi[8] 	1
scalar geant_cost_network.node[9].core_layer 	interests[9] 	417878
scalar geant_cost_network.node[9].core_layer 	data[9] 	369383
scalar geant_cost_network.node[9].content_store 	p_hit[9] 	0.1051814165857
scalar geant_cost_network.node[9].content_store 	hits[9] 	43953
scalar geant_cost_network.node[9].content_store 	misses[9] 	373925
scalar geant_cost_network.node[9].content_store 	decision_yes[9] 	1587
scalar geant_cost_network.node[9].content_store 	decision_no[9] 	367796
scalar geant_cost_network.node[9].content_store 	decision_ratio[9] 	0.0042963536491934
scalar geant_cost_network.node[9].content_store 	correction_factor[9] 	0.0027225701061802
scalar geant_cost_network.node[9].content_store 	xi[9] 	1
scalar geant_cost_network.node[10].core_layer 	interests[10] 	187721
scalar geant_cost_network.node[10].core_layer 	data[10] 	174924
scalar geant_cost_network.node[10].content_store 	p_hit[10] 	0.058112837668668
scalar geant_cost_network.node[10].content_store 	hits[10] 	10909
scalar geant_cost_network.node[10].content_store 	misses[10] 	176812
scalar geant_cost_network.node[10].content_store 	decision_yes[10] 	794
scalar geant_cost_network.node[10].content_store 	decision_no[10] 	174130
scalar geant_cost_network.node[10].content_store 	decision_ratio[10] 	0.0045391141295648
scalar geant_cost_network.node[10].content_store 	correction_factor[10] 	0.0027225701061802
scalar geant_cost_network.node[10].content_store 	xi[10] 	1
scalar geant_cost_network.node[11].core_layer 	interests[11] 	0
scalar geant_cost_network.node[11].core_layer 	data[11] 	0
scalar geant_cost_network.node[11].content_store 	p_hit[11] 	-nan
scalar geant_cost_network.node[11].content_store 	hits[11] 	0
scalar geant_cost_network.node[11].content_store 	misses[11] 	0
scalar geant_cost_network.node[11].content_store 	decision_yes[11] 	0
scalar geant_cost_network.node[11].content_store 	decision_no[11] 	0
scalar geant_cost_network.node[11].content_store 	decision_ratio[11] 	0
scalar geant_cost_network.node[11].content_store 	correction_factor[11] 	0.0027225701061802
scalar geant_cost_network.node[11].content_store 	xi[11] 	1
scalar geant_cost_network.node[12].core_layer 	interests[12] 	318208
scalar geant_cost_network.node[12].core_layer 	data[12] 	300144
scalar geant_cost_network.node[12].content_store 	p_hit[12] 	0.038565969428801
scalar geant_cost_network.node[12].content_store 	hits[12] 	12272
scalar geant_cost_network.node[12].content_store 	misses[12] 	305936
scalar geant_cost_network.node[12].content_store 	decision_yes[12] 	2136
scalar geant_cost_network.node[12].content_store 	decision_no[12] 	298008
scalar geant_cost_network.node[12].content_store 	decision_ratio[12] 	0.007116584039661
scalar geant_cost_network.node[12].content_store 	correction_factor[12] 	0.0027225701061802
scalar geant_cost_network.node[12].content_store 	xi[12] 	1
scalar geant_cost_network.node[13].core_layer 	interests[13] 	4998
scalar geant_cost_network.node[13].core_layer 	data[13] 	4853
scalar geant_cost_network.node[13].content_store 	p_hit[13] 	0.029011604641857
scalar geant_cost_network.node[13].content_store 	hits[13] 	145
scalar geant_cost_network.node[13].content_store 	misses[13] 	4853
scalar geant_cost_network.node[13].content_store 	decision_yes[13] 	1
scalar geant_cost_network.node[13].content_store 	decision_no[13] 	4852
scalar geant_cost_network.node[13].content_store 	decision_ratio[13] 	0.00020605810838657
scalar geant_cost_network.node[13].content_store 	correction_factor[13] 	0.0027225701061802
scalar geant_cost_network.node[13].content_store 	xi[13] 	1
scalar geant_cost_network.node[14].core_layer 	interests[14] 	66400
scalar geant_cost_network.node[14].core_layer 	data[14] 	58430
scalar geant_cost_network.node[14].content_store 	p_hit[14] 	0.12003012048193
scalar geant_cost_network.node[14].content_store 	hits[14] 	7970
scalar geant_cost_network.node[14].content_store 	misses[14] 	58430
scalar geant_cost_network.node[14].content_store 	decision_yes[14] 	693
scalar geant_cost_network.node[14].content_store 	decision_no[14] 	57737
scalar geant_cost_network.node[14].content_store 	decision_ratio[14] 	0.011860345712819
scalar geant_cost_network.node[14].content_store 	correction_factor[14] 	0.0027225701061802
scalar geant_cost_network.node[14].content_store 	xi[14] 	1
scalar geant_cost_network.node[15].core_layer 	interests[15] 	0
scalar geant_cost_network.node[15].core_layer 	data[15] 	0
scalar geant_cost_network.node[15].content_store 	p_hit[15] 	-nan
scalar geant_cost_network.node[15].content_store 	hits[15] 	0
scalar geant_cost_network.node[15].content_store 	misses[15] 	0
scalar geant_cost_network.node[15].content_store 	decision_yes[15] 	0
scalar geant_cost_network.node[15].content_store 	decision_no[15] 	0
scalar geant_cost_network.node[15].content_store 	decision_ratio[15] 	0
scalar geant_cost_network.node[15].content_store 	correction_factor[15] 	0.0027225701061802
scalar geant_cost_network.node[15].content_store 	xi[15] 	1
scalar geant_cost_network.node[16].core_layer 	interests[16] 	0
scalar geant_cost_network.node[16].core_layer 	data[16] 	0
scalar geant_cost_network.node[16].content_store 	p_hit[16] 	-nan
scalar geant_cost_network.node[16].content_store 	hits[16] 	0
scalar geant_cost_network.node[16].content_store 	misses[16] 	0
scalar geant_cost_network.node[16].content_store 	decision_yes[16] 	0
scalar geant_cost_network.node[16].content_store 	decision_no[16] 	0
scalar geant_cost_network.node[16].content_store 	decision_ratio[16] 	0
scalar geant_cost_network.node[16].content_store 	correction_factor[16] 	0.0027225701061802
scalar geant_cost_network.node[16].content_store 	xi[16] 	1
scalar geant_cost_network.node[17].core_layer 	interests[17] 	0
scalar geant_cost_network.node[17].core_layer 	data[17] 	0
scalar geant_cost_network.node[17].content_store 	p_hit[17] 	-nan
scalar geant_cost_network.node[17].content_store 	hits[17] 	0
scalar geant_cost_network.node[17].content_store 	misses[17] 	0
scalar geant_cost_network.node[17].content_store 	decision_yes[17] 	0
scalar geant_cost_network.node[17].content_store 	decision_no[17] 	0
scalar geant_cost_network.node[17].content_store 	decision_ratio[17] 	0
scalar geant_cost_network.node[17].content_store 	correction_factor[17] 	0.0027225701061802
scalar geant_cost_network.node[17].content_store 	xi[17] 	1
scalar geant_cost_network.node[18].core_layer 	interests[18] 	185384
scalar geant_cost_network.node[18].core_layer 	data[18] 	178476
scalar geant_cost_network.node[18].content_store 	p_hit[18] 	0.03251089630173
scalar geant_cost_network.node[18].content_store 	hits[18] 	6027
scalar geant_cost_network.node[18].content_store 	misses[18] 	179357
scalar geant_cost_network.node[18].content_store 	decision_yes[18] 	63
scalar geant_cost_network.node[18].content_store 	decision_no[18] 	178413
scalar geant_cost_network.node[18].content_store 	decision_ratio[18] 	0.00035298863712768
scalar geant_cost_network.node[18].content_store 	correction_factor[18] 	0.0027225701061802
scalar geant_cost_network.node[18].content_store 	xi[18] 	1
scalar geant_cost_network.node[19].core_layer 	interests[19] 	0
scalar geant_cost_network.node[19].core_layer 	data[19] 	0
scalar geant_cost_network.node[19].content_store 	p_hit[19] 	-nan
scalar geant_cost_network.node[19].content_store 	hits[19] 	0
scalar geant_cost_network.node[19].content_store 	misses[19] 	0
scalar geant_cost_network.node[19].content_store 	decision_yes[19] 	0
scalar geant_cost_network.node[19].content_store 	decision_no[19] 	0
scalar geant_cost_network.node[19].content_store 	decision_ratio[19] 	0
scalar geant_cost_network.node[19].content_store 	correction_factor[19] 	0.0027225701061802
scalar geant_cost_network.node[19].content_store 	xi[19] 	1
scalar geant_cost_network.node[20].core_layer 	interests[20] 	235817
scalar geant_cost_network.node[20].core_layer 	data[20] 	159771
scalar geant_cost_network.node[20].content_store 	p_hit[20] 	0.31933660423125
scalar geant_cost_network.node[20].content_store 	hits[20] 	75305
scalar geant_cost_network.node[20].content_store 	misses[20] 	160512
scalar geant_cost_network.node[20].content_store 	decision_yes[20] 	835
scalar geant_cost_network.node[20].content_store 	decision_no[20] 	158936
scalar geant_cost_network.node[20].content_store 	decision_ratio[20] 	0.0052262300417473
scalar geant_cost_network.node[20].content_store 	correction_factor[20] 	0.0027225701061802
scalar geant_cost_network.node[20].content_store 	xi[20] 	1
scalar geant_cost_network.node[21].core_layer 	interests[21] 	159715
scalar geant_cost_network.node[21].core_layer 	data[21] 	130319
scalar geant_cost_network.node[21].content_store 	p_hit[21] 	0.1840528441286
scalar geant_cost_network.node[21].content_store 	hits[21] 	29396
scalar geant_cost_network.node[21].content_store 	misses[21] 	130319
scalar geant_cost_network.node[21].content_store 	decision_yes[21] 	3673
scalar geant_cost_network.node[21].content_store 	decision_no[21] 	126646
scalar geant_cost_network.node[21].content_store 	decision_ratio[21] 	0.028184685272293
scalar geant_cost_network.node[21].content_store 	correction_factor[21] 	0.0027225701061802
scalar geant_cost_network.node[21].content_store 	xi[21] 	1
scalar geant_cost_network.node[22].core_layer 	interests[22] 	312755
scalar geant_cost_network.node[22].core_layer 	repo_load[22] 	312755
scalar geant_cost_network.node[22].core_layer 	data[22] 	0
scalar geant_cost_network.node[22].content_store 	p_hit[22] 	0
scalar geant_cost_network.node[22].content_store 	hits[22] 	0
scalar geant_cost_network.node[22].content_store 	misses[22] 	312755
scalar geant_cost_network.node[22].content_store 	decision_yes[22] 	0
scalar geant_cost_network.node[22].content_store 	decision_no[22] 	312755
scalar geant_cost_network.node[22].content_store 	decision_ratio[22] 	0
scalar geant_cost_network.node[23].core_layer 	interests[23] 	132079
scalar geant_cost_network.node[23].core_layer 	repo_load[23] 	132079
scalar geant_cost_network.node[23].core_layer 	data[23] 	0
scalar geant_cost_network.node[23].content_store 	p_hit[23] 	0
scalar geant_cost_network.node[23].content_store 	hits[23] 	0
scalar geant_cost_network.node[23].content_store 	misses[23] 	132079
scalar geant_cost_network.node[23].content_store 	decision_yes[23] 	0
scalar geant_cost_network.node[23].content_store 	decision_no[23] 	132079
scalar geant_cost_network.node[23].content_store 	decision_ratio[23] 	0
scalar geant_cost_network.node[24].core_layer 	interests[24] 	130319
scalar geant_cost_network.node[24].core_layer 	repo_load[24] 	130319
scalar geant_cost_network.node[24].core_layer 	data[24] 	0
scalar geant_cost_network.node[24].content_store 	p_hit[24] 	0
scalar geant_cost_network.node[24].content_store 	hits[24] 	0
scalar geant_cost_network.node[24].content_store 	misses[24] 	130319
scalar geant_cost_network.node[24].content_store 	decision_yes[24] 	0
scalar geant_cost_network.node[24].content_store 	decision_no[24] 	130319
scalar geant_cost_network.node[24].content_store 	decision_ratio[24] 	0
scalar geant_cost_network.client[5] 	hdistance[5] 	3.5290840367756
scalar geant_cost_network.client[5] 	downloads[5] 	178053
scalar geant_cost_network.client[5] 	avg_time[5] 	0.009935956597
scalar geant_cost_network.client[5] 	interests_sent[5] 	180196
scalar geant_cost_network.client[9] 	hdistance[9] 	3.6634190939328
scalar geant_cost_network.client[9] 	downloads[9] 	178287
scalar geant_cost_network.client[9] 	avg_time[9] 	0.005287071115
scalar geant_cost_network.client[9] 	interests_sent[9] 	179930
scalar geant_cost_network.client[10] 	hdistance[10] 	4.6235462495491
scalar geant_cost_network.client[10] 	downloads[10] 	177472
scalar geant_cost_network.client[10] 	avg_time[10] 	0.007190575441
scalar geant_cost_network.client[10] 	interests_sent[10] 	179360
scalar geant_cost_network.client[12] 	hdistance[12] 	3.9132661944855
scalar geant_cost_network.client[12] 	downloads[12] 	178039
scalar geant_cost_network.client[12] 	avg_time[12] 	0.006206063687
scalar geant_cost_network.client[12] 	interests_sent[12] 	179511
scalar geant_cost_network.client[20] 	hdistance[20] 	3.8083634946266
scalar geant_cost_network.client[20] 	downloads[20] 	179590
scalar geant_cost_network.client[20] 	avg_time[20] 	0.007378106763
scalar geant_cost_network.client[20] 	interests_sent[20] 	180331
