version 2
run General-1528-20140502-03:58:33-10448
attr D costprob0.01
attr F nrr
attr R lru
attr a 1
attr configname General
attr csize 1e3
attr ctlg 1e5
attr datetime 20140502-03:58:33
attr experiment General
attr inifile omnetpp.ini
attr iterationvars "$net=three_caches_scenario_3_links, $rep=3, $priceratiovalue=5, $weights=0.7_0.15_0.15, $a=1, $ctlg=1e5, $F=nrr, $ttl=1000, $D=costprob0.01, $xi=1, $R=lru, $csize=1e3"
attr iterationvars2 "$net=three_caches_scenario_3_links, $rep=3, $priceratiovalue=5, $weights=0.7_0.15_0.15, $a=1, $ctlg=1e5, $F=nrr, $ttl=1000, $D=costprob0.01, $xi=1, $R=lru, $csize=1e3, $repetition=0"
attr measurement "$net=three_caches_scenario_3_links, $rep=3, $priceratiovalue=5, $weights=0.7_0.15_0.15, $a=1, $ctlg=1e5, $F=nrr, $ttl=1000, $D=costprob0.01, $xi=1, $R=lru, $csize=1e3"
attr net three_caches_scenario_3_links
attr network networks.${net=three_caches_scenario_3_links}_network
attr priceratiovalue 5
attr processid 10448
attr rep 3
attr repetition 0
attr replication #0
attr resultdir results
attr runnumber 1528
attr seedset 3
attr ttl 1000
attr weights 0.7_0.15_0.15
attr xi 1

scalar . 	a 	1
scalar . 	csize 	1e3
scalar . 	ctlg 	1e5
scalar . 	priceratiovalue 	5
scalar . 	rep 	3
scalar . 	ttl 	1000
scalar . 	xi 	1
scalar three_caches_scenario_3_links_network.content_distribution 	repo-0 	4
scalar three_caches_scenario_3_links_network.content_distribution 	repo-1 	5
scalar three_caches_scenario_3_links_network.content_distribution 	repo-2 	6
scalar three_caches_scenario_3_links_network.content_distribution 	client-0 	0
scalar three_caches_scenario_3_links_network.content_distribution 	repo-0_card 	69828
scalar three_caches_scenario_3_links_network.content_distribution 	repo-1_card 	15121
scalar three_caches_scenario_3_links_network.content_distribution 	repo-2_card 	15051
scalar three_caches_scenario_3_links_network.statistics 	p_hit 	0.060345000662536
scalar three_caches_scenario_3_links_network.statistics 	interests 	71155.142857143
scalar three_caches_scenario_3_links_network.statistics 	data 	45325.714285714
scalar three_caches_scenario_3_links_network.statistics 	hdistance 	1.8561939316173
scalar three_caches_scenario_3_links_network.statistics 	avg_time 	0
scalar three_caches_scenario_3_links_network.statistics 	downloads 	180806
scalar three_caches_scenario_3_links_network.statistics 	total_cost 	52667
scalar three_caches_scenario_3_links_network.statistics 	total_replicas 	100000
scalar three_caches_scenario_3_links_network.statistics 	interests_sent 	180806
scalar three_caches_scenario_3_links_network.node[0].core_layer 	interests[0] 	180806
scalar three_caches_scenario_3_links_network.node[0].core_layer 	data[0] 	166531
scalar three_caches_scenario_3_links_network.node[0].core_layer 	repo_int[0] 	150749
scalar three_caches_scenario_3_links_network.node[0].content_store 	p_hit[0] 	0.078952025928343
scalar three_caches_scenario_3_links_network.node[0].content_store 	hits[0] 	14275
scalar three_caches_scenario_3_links_network.node[0].content_store 	misses[0] 	166531
scalar three_caches_scenario_3_links_network.node[0].content_store 	decision_yes[0] 	609
scalar three_caches_scenario_3_links_network.node[0].content_store 	decision_no[0] 	165922
scalar three_caches_scenario_3_links_network.node[1].core_layer 	interests[1] 	132418
scalar three_caches_scenario_3_links_network.node[1].core_layer 	data[1] 	132418
scalar three_caches_scenario_3_links_network.node[1].content_store 	p_hit[1] 	0
scalar three_caches_scenario_3_links_network.node[1].content_store 	hits[1] 	0
scalar three_caches_scenario_3_links_network.node[1].content_store 	misses[1] 	132418
scalar three_caches_scenario_3_links_network.node[1].content_store 	decision_yes[1] 	0
scalar three_caches_scenario_3_links_network.node[1].content_store 	decision_no[1] 	132418
scalar three_caches_scenario_3_links_network.node[2].core_layer 	interests[2] 	19232
scalar three_caches_scenario_3_links_network.node[2].core_layer 	data[2] 	9747
scalar three_caches_scenario_3_links_network.node[2].content_store 	p_hit[2] 	0.4931884359401
scalar three_caches_scenario_3_links_network.node[2].content_store 	hits[2] 	9485
scalar three_caches_scenario_3_links_network.node[2].content_store 	misses[2] 	9747
scalar three_caches_scenario_3_links_network.node[2].content_store 	decision_yes[2] 	105
scalar three_caches_scenario_3_links_network.node[2].content_store 	decision_no[2] 	9642
scalar three_caches_scenario_3_links_network.node[3].core_layer 	interests[3] 	14881
scalar three_caches_scenario_3_links_network.node[3].core_layer 	data[3] 	8584
scalar three_caches_scenario_3_links_network.node[3].content_store 	p_hit[3] 	0.42315704589745
scalar three_caches_scenario_3_links_network.node[3].content_store 	hits[3] 	6297
scalar three_caches_scenario_3_links_network.node[3].content_store 	misses[3] 	8584
scalar three_caches_scenario_3_links_network.node[3].content_store 	decision_yes[3] 	478
scalar three_caches_scenario_3_links_network.node[3].content_store 	decision_no[3] 	8106
scalar three_caches_scenario_3_links_network.node[4].core_layer 	interests[4] 	132418
scalar three_caches_scenario_3_links_network.node[4].core_layer 	repo_load[4] 	132418
scalar three_caches_scenario_3_links_network.node[4].core_layer 	data[4] 	0
scalar three_caches_scenario_3_links_network.node[4].content_store 	p_hit[4] 	0
scalar three_caches_scenario_3_links_network.node[4].content_store 	hits[4] 	0
scalar three_caches_scenario_3_links_network.node[4].content_store 	misses[4] 	132418
scalar three_caches_scenario_3_links_network.node[4].content_store 	decision_yes[4] 	0
scalar three_caches_scenario_3_links_network.node[4].content_store 	decision_no[4] 	132418
scalar three_caches_scenario_3_links_network.node[5].core_layer 	interests[5] 	9747
scalar three_caches_scenario_3_links_network.node[5].core_layer 	repo_load[5] 	9747
scalar three_caches_scenario_3_links_network.node[5].core_layer 	data[5] 	0
scalar three_caches_scenario_3_links_network.node[5].content_store 	p_hit[5] 	0
scalar three_caches_scenario_3_links_network.node[5].content_store 	hits[5] 	0
scalar three_caches_scenario_3_links_network.node[5].content_store 	misses[5] 	9747
scalar three_caches_scenario_3_links_network.node[5].content_store 	decision_yes[5] 	0
scalar three_caches_scenario_3_links_network.node[5].content_store 	decision_no[5] 	9747
scalar three_caches_scenario_3_links_network.node[6].core_layer 	interests[6] 	8584
scalar three_caches_scenario_3_links_network.node[6].core_layer 	repo_load[6] 	8584
scalar three_caches_scenario_3_links_network.node[6].core_layer 	data[6] 	0
scalar three_caches_scenario_3_links_network.node[6].content_store 	p_hit[6] 	0
scalar three_caches_scenario_3_links_network.node[6].content_store 	hits[6] 	0
scalar three_caches_scenario_3_links_network.node[6].content_store 	misses[6] 	8584
scalar three_caches_scenario_3_links_network.node[6].content_store 	decision_yes[6] 	0
scalar three_caches_scenario_3_links_network.node[6].content_store 	decision_no[6] 	8584
scalar three_caches_scenario_3_links_network.client[0] 	hdistance[0] 	1.8561939316173
scalar three_caches_scenario_3_links_network.client[0] 	downloads[0] 	180806
scalar three_caches_scenario_3_links_network.client[0] 	avg_time[0] 	0
scalar three_caches_scenario_3_links_network.client[0] 	interests_sent[0] 	180806
