version 2
run General-3389-20140423-19:57:44-30425
attr D prob_cache
attr F nrr
attr R lru
attr a 0
attr configname General
attr csize 2
attr ctlg 10^3
attr datetime 20140423-19:57:44
attr experiment General
attr inifile omnetpp.ini
attr iterationvars "$net=simple_scenario, $rep=10, $priceratiovalue=5, $a=0, $ctlg=10^3, $F=nrr, $ttl=1000, $D=prob_cache, $R=lru, $csize=2"
attr iterationvars2 "$net=simple_scenario, $rep=10, $priceratiovalue=5, $a=0, $ctlg=10^3, $F=nrr, $ttl=1000, $D=prob_cache, $R=lru, $csize=2, $repetition=0"
attr measurement "$net=simple_scenario, $rep=10, $priceratiovalue=5, $a=0, $ctlg=10^3, $F=nrr, $ttl=1000, $D=prob_cache, $R=lru, $csize=2"
attr net simple_scenario
attr network networks.${net=simple_scenario}_network
attr priceratiovalue 5
attr processid 30425
attr rep 10
attr repetition 0
attr replication #0
attr resultdir results
attr runnumber 3389
attr seedset 10
attr ttl 1000

scalar . 	a 	0
scalar . 	csize 	2
scalar . 	priceratiovalue 	5
scalar . 	rep 	10
scalar . 	ttl 	1000
scalar simple_scenario_network.content_distribution 	repo-0 	3
scalar simple_scenario_network.content_distribution 	repo-1 	4
scalar simple_scenario_network.content_distribution 	client-0 	0
scalar simple_scenario_network.content_distribution 	repo-0_card 	519
scalar simple_scenario_network.content_distribution 	repo-1_card 	481
scalar simple_scenario_network.statistics 	p_hit 	0.0020129162123627
scalar simple_scenario_network.statistics 	interests 	107307
scalar simple_scenario_network.statistics 	data 	71442
scalar simple_scenario_network.statistics 	hdistance 	2.9859473023839
scalar simple_scenario_network.statistics 	avg_time 	0.001999749573
scalar simple_scenario_network.statistics 	downloads 	179325
scalar simple_scenario_network.statistics 	total_cost 	86577
scalar simple_scenario_network.node[0].core_layer 	interests[0] 	179325
scalar simple_scenario_network.node[0].core_layer 	data[0] 	178965
scalar simple_scenario_network.node[0].core_layer 	repo_int[0] 	178245
scalar simple_scenario_network.node[0].content_store 	p_hit[0] 	0.0020075282308657
scalar simple_scenario_network.node[0].content_store 	hits[0] 	360
scalar simple_scenario_network.node[0].content_store 	misses[0] 	178965
scalar simple_scenario_network.node[1].core_layer 	interests[1] 	93301
scalar simple_scenario_network.node[1].core_layer 	data[1] 	92939
scalar simple_scenario_network.node[1].content_store 	p_hit[1] 	0.00387991554217
scalar simple_scenario_network.node[1].content_store 	hits[1] 	362
scalar simple_scenario_network.node[1].content_store 	misses[1] 	92939
scalar simple_scenario_network.node[2].core_layer 	interests[2] 	85664
scalar simple_scenario_network.node[2].core_layer 	data[2] 	85306
scalar simple_scenario_network.node[2].content_store 	p_hit[2] 	0.0041791184161375
scalar simple_scenario_network.node[2].content_store 	hits[2] 	358
scalar simple_scenario_network.node[2].content_store 	misses[2] 	85306
scalar simple_scenario_network.node[3].core_layer 	interests[3] 	92939
scalar simple_scenario_network.node[3].core_layer 	repo_load[3] 	92939
scalar simple_scenario_network.node[3].core_layer 	data[3] 	0
scalar simple_scenario_network.node[3].content_store 	p_hit[3] 	0
scalar simple_scenario_network.node[3].content_store 	hits[3] 	0
scalar simple_scenario_network.node[3].content_store 	misses[3] 	92939
scalar simple_scenario_network.node[4].core_layer 	interests[4] 	85306
scalar simple_scenario_network.node[4].core_layer 	repo_load[4] 	85306
scalar simple_scenario_network.node[4].core_layer 	data[4] 	0
scalar simple_scenario_network.node[4].content_store 	p_hit[4] 	0
scalar simple_scenario_network.node[4].content_store 	hits[4] 	0
scalar simple_scenario_network.node[4].content_store 	misses[4] 	85306
scalar simple_scenario_network.client[0] 	hdistance[0] 	2.9859473023839
scalar simple_scenario_network.client[0] 	downloads[0] 	179325
scalar simple_scenario_network.client[0] 	avg_time[0] 	0.001999749573
