version 2
run General-264-20140424-23:46:40-11100
attr D costprob0.0002
attr F nrr
attr R lru
attr a 0
attr configname General
attr csize 30
attr ctlg 10^3
attr datetime 20140424-23:46:40
attr experiment General
attr inifile omnetpp.ini
attr iterationvars "$net=one_cache_scenario, $rep=1, $priceratiovalue=7, $a=0, $ctlg=10^3, $F=nrr, $ttl=1000, $D=costprob0.0002, $R=lru, $csize=30"
attr iterationvars2 "$net=one_cache_scenario, $rep=1, $priceratiovalue=7, $a=0, $ctlg=10^3, $F=nrr, $ttl=1000, $D=costprob0.0002, $R=lru, $csize=30, $repetition=0"
attr measurement "$net=one_cache_scenario, $rep=1, $priceratiovalue=7, $a=0, $ctlg=10^3, $F=nrr, $ttl=1000, $D=costprob0.0002, $R=lru, $csize=30"
attr net one_cache_scenario
attr network networks.${net=one_cache_scenario}_network
attr priceratiovalue 7
attr processid 11100
attr rep 1
attr repetition 0
attr replication #0
attr resultdir results
attr runnumber 264
attr seedset 1
attr ttl 1000

scalar . 	a 	0
scalar . 	csize 	30
scalar . 	priceratiovalue 	7
scalar . 	rep 	1
scalar . 	ttl 	1000
scalar one_cache_scenario_network.content_distribution 	repo-0 	3
scalar one_cache_scenario_network.content_distribution 	repo-1 	4
scalar one_cache_scenario_network.content_distribution 	client-0 	0
scalar one_cache_scenario_network.content_distribution 	repo-0_card 	504
scalar one_cache_scenario_network.content_distribution 	repo-1_card 	496
scalar one_cache_scenario_network.statistics 	p_hit 	0.010096309370442
scalar one_cache_scenario_network.statistics 	interests 	105721.8
scalar one_cache_scenario_network.statistics 	data 	69769.6
scalar one_cache_scenario_network.statistics 	hdistance 	1.9406211580932
scalar one_cache_scenario_network.statistics 	avg_time 	0
scalar one_cache_scenario_network.statistics 	downloads 	179761
scalar one_cache_scenario_network.statistics 	total_cost 	85739
scalar one_cache_scenario_network.statistics 	interests_sent 	179761
scalar one_cache_scenario_network.node[0].core_layer 	interests[0] 	179761
scalar one_cache_scenario_network.node[0].core_layer 	data[0] 	174424
scalar one_cache_scenario_network.node[0].core_layer 	repo_int[0] 	174424
scalar one_cache_scenario_network.node[0].content_store 	p_hit[0] 	0.029689420953377
scalar one_cache_scenario_network.node[0].content_store 	hits[0] 	5337
scalar one_cache_scenario_network.node[0].content_store 	misses[0] 	174424
scalar one_cache_scenario_network.node[0].content_store 	decision_yes[0] 	17
scalar one_cache_scenario_network.node[0].content_store 	decision_no[0] 	174407
scalar one_cache_scenario_network.node[1].core_layer 	interests[1] 	89176
scalar one_cache_scenario_network.node[1].core_layer 	data[1] 	89176
scalar one_cache_scenario_network.node[1].content_store 	p_hit[1] 	0
scalar one_cache_scenario_network.node[1].content_store 	hits[1] 	0
scalar one_cache_scenario_network.node[1].content_store 	misses[1] 	89176
scalar one_cache_scenario_network.node[1].content_store 	decision_yes[1] 	0
scalar one_cache_scenario_network.node[1].content_store 	decision_no[1] 	89176
scalar one_cache_scenario_network.node[2].core_layer 	interests[2] 	85248
scalar one_cache_scenario_network.node[2].core_layer 	data[2] 	85248
scalar one_cache_scenario_network.node[2].content_store 	p_hit[2] 	0
scalar one_cache_scenario_network.node[2].content_store 	hits[2] 	0
scalar one_cache_scenario_network.node[2].content_store 	misses[2] 	85248
scalar one_cache_scenario_network.node[2].content_store 	decision_yes[2] 	0
scalar one_cache_scenario_network.node[2].content_store 	decision_no[2] 	85248
scalar one_cache_scenario_network.node[3].core_layer 	interests[3] 	89176
scalar one_cache_scenario_network.node[3].core_layer 	repo_load[3] 	89176
scalar one_cache_scenario_network.node[3].core_layer 	data[3] 	0
scalar one_cache_scenario_network.node[3].content_store 	p_hit[3] 	0
scalar one_cache_scenario_network.node[3].content_store 	hits[3] 	0
scalar one_cache_scenario_network.node[3].content_store 	misses[3] 	89176
scalar one_cache_scenario_network.node[3].content_store 	decision_yes[3] 	0
scalar one_cache_scenario_network.node[3].content_store 	decision_no[3] 	89176
scalar one_cache_scenario_network.node[4].core_layer 	interests[4] 	85248
scalar one_cache_scenario_network.node[4].core_layer 	repo_load[4] 	85248
scalar one_cache_scenario_network.node[4].core_layer 	data[4] 	0
scalar one_cache_scenario_network.node[4].content_store 	p_hit[4] 	0
scalar one_cache_scenario_network.node[4].content_store 	hits[4] 	0
scalar one_cache_scenario_network.node[4].content_store 	misses[4] 	85248
scalar one_cache_scenario_network.node[4].content_store 	decision_yes[4] 	0
scalar one_cache_scenario_network.node[4].content_store 	decision_no[4] 	85248
scalar one_cache_scenario_network.client[0] 	hdistance[0] 	1.9406211580932
scalar one_cache_scenario_network.client[0] 	downloads[0] 	179761
scalar one_cache_scenario_network.client[0] 	avg_time[0] 	0
scalar one_cache_scenario_network.client[0] 	interests_sent[0] 	179761
