version 2
run General-135-20140502-01:20:57-9010
attr D fix0.5
attr F nrr
attr R lru
attr a 1.2
attr configname General
attr csize 1e3
attr ctlg 1e5
attr datetime 20140502-01:20:57
attr experiment General
attr inifile omnetpp.ini
attr iterationvars "$net=three_caches_scenario_3_links, $rep=1, $priceratiovalue=1, $weights=0_0.5_0.5, $a=1.2, $ctlg=1e5, $F=nrr, $ttl=1000, $D=fix0.5, $xi=1, $R=lru, $csize=1e3"
attr iterationvars2 "$net=three_caches_scenario_3_links, $rep=1, $priceratiovalue=1, $weights=0_0.5_0.5, $a=1.2, $ctlg=1e5, $F=nrr, $ttl=1000, $D=fix0.5, $xi=1, $R=lru, $csize=1e3, $repetition=0"
attr measurement "$net=three_caches_scenario_3_links, $rep=1, $priceratiovalue=1, $weights=0_0.5_0.5, $a=1.2, $ctlg=1e5, $F=nrr, $ttl=1000, $D=fix0.5, $xi=1, $R=lru, $csize=1e3"
attr net three_caches_scenario_3_links
attr network networks.${net=three_caches_scenario_3_links}_network
attr priceratiovalue 1
attr processid 9010
attr rep 1
attr repetition 0
attr replication #0
attr resultdir results
attr runnumber 135
attr seedset 1
attr ttl 1000
attr weights 0_0.5_0.5
attr xi 1

scalar . 	a 	1.2
scalar . 	csize 	1e3
scalar . 	ctlg 	1e5
scalar . 	priceratiovalue 	1
scalar . 	rep 	1
scalar . 	ttl 	1000
scalar . 	xi 	1
scalar three_caches_scenario_3_links_network.content_distribution 	repo-0 	4
scalar three_caches_scenario_3_links_network.content_distribution 	repo-1 	5
scalar three_caches_scenario_3_links_network.content_distribution 	repo-2 	6
scalar three_caches_scenario_3_links_network.content_distribution 	client-0 	0
scalar three_caches_scenario_3_links_network.content_distribution 	repo-0_card 	0
scalar three_caches_scenario_3_links_network.content_distribution 	repo-1_card 	50024
scalar three_caches_scenario_3_links_network.content_distribution 	repo-2_card 	49976
scalar three_caches_scenario_3_links_network.statistics 	p_hit 	0.52273990384077
scalar three_caches_scenario_3_links_network.statistics 	interests 	38299.571428571
scalar three_caches_scenario_3_links_network.statistics 	data 	12628
scalar three_caches_scenario_3_links_network.statistics 	hdistance 	0.71202720073902
scalar three_caches_scenario_3_links_network.statistics 	avg_time 	0
scalar three_caches_scenario_3_links_network.statistics 	downloads 	179701
scalar three_caches_scenario_3_links_network.statistics 	total_cost 	39556
scalar three_caches_scenario_3_links_network.statistics 	total_replicas 	100000
scalar three_caches_scenario_3_links_network.statistics 	interests_sent 	179701
scalar three_caches_scenario_3_links_network.node[0].core_layer 	interests[0] 	179701
scalar three_caches_scenario_3_links_network.node[0].core_layer 	data[0] 	48840
scalar three_caches_scenario_3_links_network.node[0].core_layer 	repo_int[0] 	39556
scalar three_caches_scenario_3_links_network.node[0].content_store 	p_hit[0] 	0.72821520191874
scalar three_caches_scenario_3_links_network.node[0].content_store 	hits[0] 	130861
scalar three_caches_scenario_3_links_network.node[0].content_store 	misses[0] 	48840
scalar three_caches_scenario_3_links_network.node[0].content_store 	decision_yes[0] 	24334
scalar three_caches_scenario_3_links_network.node[0].content_store 	decision_no[0] 	24506
scalar three_caches_scenario_3_links_network.node[1].core_layer 	interests[1] 	0
scalar three_caches_scenario_3_links_network.node[1].core_layer 	data[1] 	0
scalar three_caches_scenario_3_links_network.node[1].content_store 	p_hit[1] 	-nan
scalar three_caches_scenario_3_links_network.node[1].content_store 	hits[1] 	0
scalar three_caches_scenario_3_links_network.node[1].content_store 	misses[1] 	0
scalar three_caches_scenario_3_links_network.node[1].content_store 	decision_yes[1] 	0
scalar three_caches_scenario_3_links_network.node[1].content_store 	decision_no[1] 	0
scalar three_caches_scenario_3_links_network.node[2].core_layer 	interests[2] 	24522
scalar three_caches_scenario_3_links_network.node[2].core_layer 	data[2] 	19793
scalar three_caches_scenario_3_links_network.node[2].content_store 	p_hit[2] 	0.19284723921377
scalar three_caches_scenario_3_links_network.node[2].content_store 	hits[2] 	4729
scalar three_caches_scenario_3_links_network.node[2].content_store 	misses[2] 	19793
scalar three_caches_scenario_3_links_network.node[2].content_store 	decision_yes[2] 	10038
scalar three_caches_scenario_3_links_network.node[2].content_store 	decision_no[2] 	9755
scalar three_caches_scenario_3_links_network.node[3].core_layer 	interests[3] 	24318
scalar three_caches_scenario_3_links_network.node[3].core_layer 	data[3] 	19763
scalar three_caches_scenario_3_links_network.node[3].content_store 	p_hit[3] 	0.18730981166214
scalar three_caches_scenario_3_links_network.node[3].content_store 	hits[3] 	4555
scalar three_caches_scenario_3_links_network.node[3].content_store 	misses[3] 	19763
scalar three_caches_scenario_3_links_network.node[3].content_store 	decision_yes[3] 	9864
scalar three_caches_scenario_3_links_network.node[3].content_store 	decision_no[3] 	9899
scalar three_caches_scenario_3_links_network.node[4].core_layer 	interests[4] 	0
scalar three_caches_scenario_3_links_network.node[4].core_layer 	data[4] 	0
scalar three_caches_scenario_3_links_network.node[4].content_store 	p_hit[4] 	-nan
scalar three_caches_scenario_3_links_network.node[4].content_store 	hits[4] 	0
scalar three_caches_scenario_3_links_network.node[4].content_store 	misses[4] 	0
scalar three_caches_scenario_3_links_network.node[4].content_store 	decision_yes[4] 	0
scalar three_caches_scenario_3_links_network.node[4].content_store 	decision_no[4] 	0
scalar three_caches_scenario_3_links_network.node[5].core_layer 	interests[5] 	19793
scalar three_caches_scenario_3_links_network.node[5].core_layer 	repo_load[5] 	19793
scalar three_caches_scenario_3_links_network.node[5].core_layer 	data[5] 	0
scalar three_caches_scenario_3_links_network.node[5].content_store 	p_hit[5] 	0
scalar three_caches_scenario_3_links_network.node[5].content_store 	hits[5] 	0
scalar three_caches_scenario_3_links_network.node[5].content_store 	misses[5] 	19793
scalar three_caches_scenario_3_links_network.node[5].content_store 	decision_yes[5] 	0
scalar three_caches_scenario_3_links_network.node[5].content_store 	decision_no[5] 	19793
scalar three_caches_scenario_3_links_network.node[6].core_layer 	interests[6] 	19763
scalar three_caches_scenario_3_links_network.node[6].core_layer 	repo_load[6] 	19763
scalar three_caches_scenario_3_links_network.node[6].core_layer 	data[6] 	0
scalar three_caches_scenario_3_links_network.node[6].content_store 	p_hit[6] 	0
scalar three_caches_scenario_3_links_network.node[6].content_store 	hits[6] 	0
scalar three_caches_scenario_3_links_network.node[6].content_store 	misses[6] 	19763
scalar three_caches_scenario_3_links_network.node[6].content_store 	decision_yes[6] 	0
scalar three_caches_scenario_3_links_network.node[6].content_store 	decision_no[6] 	19763
scalar three_caches_scenario_3_links_network.client[0] 	hdistance[0] 	0.71202720073902
scalar three_caches_scenario_3_links_network.client[0] 	downloads[0] 	179701
scalar three_caches_scenario_3_links_network.client[0] 	avg_time[0] 	0
scalar three_caches_scenario_3_links_network.client[0] 	interests_sent[0] 	179701
