version 2
run General-59-20140505-13:58:32-13306
attr D costprob0.01
attr F nrr
attr R lru
attr a 0
attr configname General
attr csize 1e3
attr ctlg 1e5
attr datetime 20140505-13:58:32
attr experiment General
attr inifile omnetpp.ini
attr iterationvars "$net=one_cache_scenario_3_links, $rep=5, $priceratiovalue=10, $weights=0.5_0.5_0, $a=0, $ctlg=1e5, $F=nrr, $ttl=1000, $D=costprob0.01, $xi=1, $R=lru, $csize=1e3"
attr iterationvars2 "$net=one_cache_scenario_3_links, $rep=5, $priceratiovalue=10, $weights=0.5_0.5_0, $a=0, $ctlg=1e5, $F=nrr, $ttl=1000, $D=costprob0.01, $xi=1, $R=lru, $csize=1e3, $repetition=0"
attr measurement "$net=one_cache_scenario_3_links, $rep=5, $priceratiovalue=10, $weights=0.5_0.5_0, $a=0, $ctlg=1e5, $F=nrr, $ttl=1000, $D=costprob0.01, $xi=1, $R=lru, $csize=1e3"
attr net one_cache_scenario_3_links
attr network networks.${net=one_cache_scenario_3_links}_network
attr priceratiovalue 10
attr processid 13306
attr rep 5
attr repetition 0
attr replication #0
attr resultdir results
attr runnumber 59
attr seedset 5
attr ttl 1000
attr weights 0.5_0.5_0
attr xi 1

scalar . 	a 	0
scalar . 	csize 	1e3
scalar . 	ctlg 	1e5
scalar . 	priceratiovalue 	10
scalar . 	rep 	5
scalar . 	ttl 	1000
scalar . 	xi 	1
scalar one_cache_scenario_3_links_network.content_distribution 	repo-0 	4
scalar one_cache_scenario_3_links_network.content_distribution 	repo-1 	5
scalar one_cache_scenario_3_links_network.content_distribution 	repo-2 	6
scalar one_cache_scenario_3_links_network.content_distribution 	client-0 	0
scalar one_cache_scenario_3_links_network.content_distribution 	repo-0_card 	49909
scalar one_cache_scenario_3_links_network.content_distribution 	repo-1_card 	50091
scalar one_cache_scenario_3_links_network.content_distribution 	repo-2_card 	0
scalar one_cache_scenario_3_links_network.statistics 	p_hit 	0.0035354004495885
scalar one_cache_scenario_3_links_network.statistics 	interests 	76895.714285714
scalar one_cache_scenario_3_links_network.statistics 	data 	51082.571428571
scalar one_cache_scenario_3_links_network.statistics 	hdistance 	1.9789365328847
scalar one_cache_scenario_3_links_network.statistics 	avg_time 	0
scalar one_cache_scenario_3_links_network.statistics 	downloads 	180692
scalar one_cache_scenario_3_links_network.statistics 	total_cost 	88174
scalar one_cache_scenario_3_links_network.statistics 	total_replicas 	100000
scalar one_cache_scenario_3_links_network.statistics 	interests_sent 	180692
scalar one_cache_scenario_3_links_network.node[0].core_layer 	interests[0] 	180692
scalar one_cache_scenario_3_links_network.node[0].core_layer 	data[0] 	178789
scalar one_cache_scenario_3_links_network.node[0].core_layer 	repo_int[0] 	178789
scalar one_cache_scenario_3_links_network.node[0].content_store 	p_hit[0] 	0.010531733557656
scalar one_cache_scenario_3_links_network.node[0].content_store 	hits[0] 	1903
scalar one_cache_scenario_3_links_network.node[0].content_store 	misses[0] 	178789
scalar one_cache_scenario_3_links_network.node[0].content_store 	decision_yes[0] 	1801
scalar one_cache_scenario_3_links_network.node[0].content_store 	decision_no[0] 	176988
scalar one_cache_scenario_3_links_network.node[0].content_store 	decision_ratio[0] 	0.010073326658799
scalar one_cache_scenario_3_links_network.node[1].core_layer 	interests[1] 	90615
scalar one_cache_scenario_3_links_network.node[1].core_layer 	data[1] 	90615
scalar one_cache_scenario_3_links_network.node[1].content_store 	p_hit[1] 	0
scalar one_cache_scenario_3_links_network.node[1].content_store 	hits[1] 	0
scalar one_cache_scenario_3_links_network.node[1].content_store 	misses[1] 	90615
scalar one_cache_scenario_3_links_network.node[1].content_store 	decision_yes[1] 	0
scalar one_cache_scenario_3_links_network.node[1].content_store 	decision_no[1] 	90615
scalar one_cache_scenario_3_links_network.node[1].content_store 	decision_ratio[1] 	0
scalar one_cache_scenario_3_links_network.node[2].core_layer 	interests[2] 	88174
scalar one_cache_scenario_3_links_network.node[2].core_layer 	data[2] 	88174
scalar one_cache_scenario_3_links_network.node[2].content_store 	p_hit[2] 	0
scalar one_cache_scenario_3_links_network.node[2].content_store 	hits[2] 	0
scalar one_cache_scenario_3_links_network.node[2].content_store 	misses[2] 	88174
scalar one_cache_scenario_3_links_network.node[2].content_store 	decision_yes[2] 	0
scalar one_cache_scenario_3_links_network.node[2].content_store 	decision_no[2] 	88174
scalar one_cache_scenario_3_links_network.node[2].content_store 	decision_ratio[2] 	0
scalar one_cache_scenario_3_links_network.node[3].core_layer 	interests[3] 	0
scalar one_cache_scenario_3_links_network.node[3].core_layer 	data[3] 	0
scalar one_cache_scenario_3_links_network.node[3].content_store 	p_hit[3] 	-nan
scalar one_cache_scenario_3_links_network.node[3].content_store 	hits[3] 	0
scalar one_cache_scenario_3_links_network.node[3].content_store 	misses[3] 	0
scalar one_cache_scenario_3_links_network.node[3].content_store 	decision_yes[3] 	0
scalar one_cache_scenario_3_links_network.node[3].content_store 	decision_no[3] 	0
scalar one_cache_scenario_3_links_network.node[3].content_store 	decision_ratio[3] 	0
scalar one_cache_scenario_3_links_network.node[4].core_layer 	interests[4] 	90615
scalar one_cache_scenario_3_links_network.node[4].core_layer 	repo_load[4] 	90615
scalar one_cache_scenario_3_links_network.node[4].core_layer 	data[4] 	0
scalar one_cache_scenario_3_links_network.node[4].content_store 	p_hit[4] 	0
scalar one_cache_scenario_3_links_network.node[4].content_store 	hits[4] 	0
scalar one_cache_scenario_3_links_network.node[4].content_store 	misses[4] 	90615
scalar one_cache_scenario_3_links_network.node[4].content_store 	decision_yes[4] 	0
scalar one_cache_scenario_3_links_network.node[4].content_store 	decision_no[4] 	90615
scalar one_cache_scenario_3_links_network.node[4].content_store 	decision_ratio[4] 	0
scalar one_cache_scenario_3_links_network.node[5].core_layer 	interests[5] 	88174
scalar one_cache_scenario_3_links_network.node[5].core_layer 	repo_load[5] 	88174
scalar one_cache_scenario_3_links_network.node[5].core_layer 	data[5] 	0
scalar one_cache_scenario_3_links_network.node[5].content_store 	p_hit[5] 	0
scalar one_cache_scenario_3_links_network.node[5].content_store 	hits[5] 	0
scalar one_cache_scenario_3_links_network.node[5].content_store 	misses[5] 	88174
scalar one_cache_scenario_3_links_network.node[5].content_store 	decision_yes[5] 	0
scalar one_cache_scenario_3_links_network.node[5].content_store 	decision_no[5] 	88174
scalar one_cache_scenario_3_links_network.node[5].content_store 	decision_ratio[5] 	0
scalar one_cache_scenario_3_links_network.node[6].core_layer 	interests[6] 	0
scalar one_cache_scenario_3_links_network.node[6].core_layer 	data[6] 	0
scalar one_cache_scenario_3_links_network.node[6].content_store 	p_hit[6] 	-nan
scalar one_cache_scenario_3_links_network.node[6].content_store 	hits[6] 	0
scalar one_cache_scenario_3_links_network.node[6].content_store 	misses[6] 	0
scalar one_cache_scenario_3_links_network.node[6].content_store 	decision_yes[6] 	0
scalar one_cache_scenario_3_links_network.node[6].content_store 	decision_no[6] 	0
scalar one_cache_scenario_3_links_network.node[6].content_store 	decision_ratio[6] 	0
scalar one_cache_scenario_3_links_network.client[0] 	hdistance[0] 	1.9789365328847
scalar one_cache_scenario_3_links_network.client[0] 	downloads[0] 	180692
scalar one_cache_scenario_3_links_network.client[0] 	avg_time[0] 	0
scalar one_cache_scenario_3_links_network.client[0] 	interests_sent[0] 	180692
