version 2
run General-2793-20140502-06:28:07-11759
attr D fix0.001
attr F nrr
attr R lru
attr a 1
attr configname General
attr csize 1e3
attr ctlg 1e5
attr datetime 20140502-06:28:07
attr experiment General
attr inifile omnetpp.ini
attr iterationvars "$net=three_caches_scenario_3_links, $rep=5, $priceratiovalue=10, $weights=0.2_0.4_0.4, $a=1, $ctlg=1e5, $F=nrr, $ttl=1000, $D=fix0.001, $xi=1, $R=lru, $csize=1e3"
attr iterationvars2 "$net=three_caches_scenario_3_links, $rep=5, $priceratiovalue=10, $weights=0.2_0.4_0.4, $a=1, $ctlg=1e5, $F=nrr, $ttl=1000, $D=fix0.001, $xi=1, $R=lru, $csize=1e3, $repetition=0"
attr measurement "$net=three_caches_scenario_3_links, $rep=5, $priceratiovalue=10, $weights=0.2_0.4_0.4, $a=1, $ctlg=1e5, $F=nrr, $ttl=1000, $D=fix0.001, $xi=1, $R=lru, $csize=1e3"
attr net three_caches_scenario_3_links
attr network networks.${net=three_caches_scenario_3_links}_network
attr priceratiovalue 10
attr processid 11759
attr rep 5
attr repetition 0
attr replication #0
attr resultdir results
attr runnumber 2793
attr seedset 5
attr ttl 1000
attr weights 0.2_0.4_0.4
attr xi 1

scalar . 	a 	1
scalar . 	csize 	1e3
scalar . 	ctlg 	1e5
scalar . 	priceratiovalue 	10
scalar . 	rep 	5
scalar . 	ttl 	1000
scalar . 	xi 	1
scalar three_caches_scenario_3_links_network.content_distribution 	repo-0 	4
scalar three_caches_scenario_3_links_network.content_distribution 	repo-1 	5
scalar three_caches_scenario_3_links_network.content_distribution 	repo-2 	6
scalar three_caches_scenario_3_links_network.content_distribution 	client-0 	0
scalar three_caches_scenario_3_links_network.content_distribution 	repo-0_card 	19937
scalar three_caches_scenario_3_links_network.content_distribution 	repo-1_card 	40032
scalar three_caches_scenario_3_links_network.content_distribution 	repo-2_card 	40031
scalar three_caches_scenario_3_links_network.statistics 	p_hit 	0.27451520818978
scalar three_caches_scenario_3_links_network.statistics 	interests 	50795
scalar three_caches_scenario_3_links_network.statistics 	data 	25044.142857143
scalar three_caches_scenario_3_links_network.statistics 	hdistance 	1.3321664743476
scalar three_caches_scenario_3_links_network.statistics 	avg_time 	0
scalar three_caches_scenario_3_links_network.statistics 	downloads 	180256
scalar three_caches_scenario_3_links_network.statistics 	total_cost 	354307
scalar three_caches_scenario_3_links_network.statistics 	total_replicas 	100000
scalar three_caches_scenario_3_links_network.statistics 	interests_sent 	180256
scalar three_caches_scenario_3_links_network.node[0].core_layer 	interests[0] 	180256
scalar three_caches_scenario_3_links_network.node[0].core_layer 	data[0] 	92661
scalar three_caches_scenario_3_links_network.node[0].core_layer 	repo_int[0] 	82648
scalar three_caches_scenario_3_links_network.node[0].content_store 	p_hit[0] 	0.48594776318125
scalar three_caches_scenario_3_links_network.node[0].content_store 	hits[0] 	87595
scalar three_caches_scenario_3_links_network.node[0].content_store 	misses[0] 	92661
scalar three_caches_scenario_3_links_network.node[0].content_store 	decision_yes[0] 	99
scalar three_caches_scenario_3_links_network.node[0].content_store 	decision_no[0] 	92562
scalar three_caches_scenario_3_links_network.node[1].core_layer 	interests[1] 	17826
scalar three_caches_scenario_3_links_network.node[1].core_layer 	data[1] 	17826
scalar three_caches_scenario_3_links_network.node[1].content_store 	p_hit[1] 	0
scalar three_caches_scenario_3_links_network.node[1].content_store 	hits[1] 	0
scalar three_caches_scenario_3_links_network.node[1].content_store 	misses[1] 	17826
scalar three_caches_scenario_3_links_network.node[1].content_store 	decision_yes[1] 	0
scalar three_caches_scenario_3_links_network.node[1].content_store 	decision_no[1] 	17826
scalar three_caches_scenario_3_links_network.node[2].core_layer 	interests[2] 	36724
scalar three_caches_scenario_3_links_network.node[2].core_layer 	data[2] 	32657
scalar three_caches_scenario_3_links_network.node[2].content_store 	p_hit[2] 	0.11074501688269
scalar three_caches_scenario_3_links_network.node[2].content_store 	hits[2] 	4067
scalar three_caches_scenario_3_links_network.node[2].content_store 	misses[2] 	32657
scalar three_caches_scenario_3_links_network.node[2].content_store 	decision_yes[2] 	35
scalar three_caches_scenario_3_links_network.node[2].content_store 	decision_no[2] 	32622
scalar three_caches_scenario_3_links_network.node[3].core_layer 	interests[3] 	38111
scalar three_caches_scenario_3_links_network.node[3].core_layer 	data[3] 	32165
scalar three_caches_scenario_3_links_network.node[3].content_store 	p_hit[3] 	0.15601794757419
scalar three_caches_scenario_3_links_network.node[3].content_store 	hits[3] 	5946
scalar three_caches_scenario_3_links_network.node[3].content_store 	misses[3] 	32165
scalar three_caches_scenario_3_links_network.node[3].content_store 	decision_yes[3] 	34
scalar three_caches_scenario_3_links_network.node[3].content_store 	decision_no[3] 	32131
scalar three_caches_scenario_3_links_network.node[4].core_layer 	interests[4] 	17826
scalar three_caches_scenario_3_links_network.node[4].core_layer 	repo_load[4] 	17826
scalar three_caches_scenario_3_links_network.node[4].core_layer 	data[4] 	0
scalar three_caches_scenario_3_links_network.node[4].content_store 	p_hit[4] 	0
scalar three_caches_scenario_3_links_network.node[4].content_store 	hits[4] 	0
scalar three_caches_scenario_3_links_network.node[4].content_store 	misses[4] 	17826
scalar three_caches_scenario_3_links_network.node[4].content_store 	decision_yes[4] 	0
scalar three_caches_scenario_3_links_network.node[4].content_store 	decision_no[4] 	17826
scalar three_caches_scenario_3_links_network.node[5].core_layer 	interests[5] 	32657
scalar three_caches_scenario_3_links_network.node[5].core_layer 	repo_load[5] 	32657
scalar three_caches_scenario_3_links_network.node[5].core_layer 	data[5] 	0
scalar three_caches_scenario_3_links_network.node[5].content_store 	p_hit[5] 	0
scalar three_caches_scenario_3_links_network.node[5].content_store 	hits[5] 	0
scalar three_caches_scenario_3_links_network.node[5].content_store 	misses[5] 	32657
scalar three_caches_scenario_3_links_network.node[5].content_store 	decision_yes[5] 	0
scalar three_caches_scenario_3_links_network.node[5].content_store 	decision_no[5] 	32657
scalar three_caches_scenario_3_links_network.node[6].core_layer 	interests[6] 	32165
scalar three_caches_scenario_3_links_network.node[6].core_layer 	repo_load[6] 	32165
scalar three_caches_scenario_3_links_network.node[6].core_layer 	data[6] 	0
scalar three_caches_scenario_3_links_network.node[6].content_store 	p_hit[6] 	0
scalar three_caches_scenario_3_links_network.node[6].content_store 	hits[6] 	0
scalar three_caches_scenario_3_links_network.node[6].content_store 	misses[6] 	32165
scalar three_caches_scenario_3_links_network.node[6].content_store 	decision_yes[6] 	0
scalar three_caches_scenario_3_links_network.node[6].content_store 	decision_no[6] 	32165
scalar three_caches_scenario_3_links_network.client[0] 	hdistance[0] 	1.3321664743476
scalar three_caches_scenario_3_links_network.client[0] 	downloads[0] 	180256
scalar three_caches_scenario_3_links_network.client[0] 	avg_time[0] 	0
scalar three_caches_scenario_3_links_network.client[0] 	interests_sent[0] 	180256
