version 2
run General-42-20140627-19:45:44-22860
attr D fix0.01
attr F nrr
attr R lru
attr a 1
attr configname General
attr csize 1e3
attr ctlg 1e5
attr datetime 20140627-19:45:44
attr experiment General
attr inifile omnetpp.ini
attr iterationvars "$net=abilene_cost, $rep=15, $priceratiovalue=10, $weights=0.333_0.333_0.334, $lambda=100, $a=1, $ctlg=1e5, $F=nrr, $ttl=1000, $D=fix0.01, $xi=1, $R=lru, $csize=1e3, $pricebits=0, $window=60, $variance=0.05, $mytime=1800"
attr iterationvars2 "$net=abilene_cost, $rep=15, $priceratiovalue=10, $weights=0.333_0.333_0.334, $lambda=100, $a=1, $ctlg=1e5, $F=nrr, $ttl=1000, $D=fix0.01, $xi=1, $R=lru, $csize=1e3, $pricebits=0, $window=60, $variance=0.05, $mytime=1800, $repetition=0"
attr lambda 100
attr measurement "$net=abilene_cost, $rep=15, $priceratiovalue=10, $weights=0.333_0.333_0.334, $lambda=100, $a=1, $ctlg=1e5, $F=nrr, $ttl=1000, $D=fix0.01, $xi=1, $R=lru, $csize=1e3, $pricebits=0, $window=60, $variance=0.05, $mytime=1800"
attr mytime 1800
attr net abilene_cost
attr network "networks.${net=geant_cost, abilene_cost}_network"
attr pricebits 0
attr priceratiovalue 10
attr processid 22860
attr rep 15
attr repetition 0
attr replication #0
attr resultdir results
attr runnumber 42
attr seedset 15
attr ttl 1000
attr variance 0.05
attr weights 0.333_0.333_0.334
attr window 60
attr xi 1

scalar . 	a 	1
scalar . 	csize 	1e3
scalar . 	ctlg 	1e5
scalar . 	lambda 	100
scalar . 	mytime 	1800
scalar . 	pricebits 	0
scalar . 	priceratiovalue 	10
scalar . 	rep 	15
scalar . 	ttl 	1000
scalar . 	variance 	0.05
scalar . 	window 	60
scalar . 	xi 	1
scalar abilene_cost_network.content_distribution 	repo-0 	11
scalar abilene_cost_network.content_distribution 	repo-1 	12
scalar abilene_cost_network.content_distribution 	repo-2 	13
scalar abilene_cost_network.content_distribution 	client-0 	5
scalar abilene_cost_network.content_distribution 	client-1 	0
scalar abilene_cost_network.content_distribution 	client-2 	9
scalar abilene_cost_network.content_distribution 	repo-0_card 	33353
scalar abilene_cost_network.content_distribution 	repo-1_card 	33285
scalar abilene_cost_network.content_distribution 	repo-2_card 	33362
scalar abilene_cost_network.statistics 	repo_popularity[0] 	0.34920511897542
scalar abilene_cost_network.statistics 	repo_popularity[1] 	0.27009721586053
scalar abilene_cost_network.statistics 	repo_popularity[2] 	0.38069766516405
scalar abilene_cost_network.statistics 	stabilization_time 	592.4
scalar abilene_cost_network.node[1].face$o[4].channel 	price[1] 	0
scalar abilene_cost_network.node[1].face$o[4].channel 	represented_price[1] 	0
scalar abilene_cost_network.node[7].face$o[4].channel 	price[7] 	0
scalar abilene_cost_network.node[7].face$o[4].channel 	represented_price[7] 	0
scalar abilene_cost_network.node[10].face$o[4].channel 	price[10] 	0
scalar abilene_cost_network.node[10].face$o[4].channel 	represented_price[10] 	0
scalar abilene_cost_network.node[11].face$o[1].channel 	price[11] 	0
scalar abilene_cost_network.node[11].face$o[1].channel 	represented_price[11] 	0
scalar abilene_cost_network.node[12].face$o[1].channel 	price[12] 	1
scalar abilene_cost_network.node[12].face$o[1].channel 	represented_price[12] 	1
scalar abilene_cost_network.node[13].face$o[1].channel 	price[13] 	10
scalar abilene_cost_network.node[13].face$o[1].channel 	represented_price[13] 	10
scalar abilene_cost_network.statistics 	p_hit 	0.18783389995143
scalar abilene_cost_network.statistics 	interests 	111186
scalar abilene_cost_network.statistics 	data 	72603.285714286
scalar abilene_cost_network.statistics 	hdistance 	2.340171810313
scalar abilene_cost_network.statistics 	avg_time 	0.009323617463
scalar abilene_cost_network.statistics 	downloads 	540117
scalar abilene_cost_network.statistics 	total_cost 	922480
scalar abilene_cost_network.statistics 	total_replicas 	100000
scalar abilene_cost_network.statistics 	inner_hit 	0.54134567140083
scalar abilene_cost_network.statistics 	interests_sent 	540187
scalar abilene_cost_network.node[0].core_layer 	interests[0] 	184052
scalar abilene_cost_network.node[0].core_layer 	data[0] 	111016
scalar abilene_cost_network.node[0].core_layer 	repo_int[0] 	247727
scalar abilene_cost_network.node[0].content_store 	p_hit[0] 	0.3966705061613
scalar abilene_cost_network.node[0].content_store 	hits[0] 	73008
scalar abilene_cost_network.node[0].content_store 	misses[0] 	111044
scalar abilene_cost_network.node[0].content_store 	decision_yes[0] 	1130
scalar abilene_cost_network.node[0].content_store 	decision_no[0] 	109886
scalar abilene_cost_network.node[0].content_store 	decision_ratio[0] 	0.010178712978309
scalar abilene_cost_network.node[1].core_layer 	interests[1] 	161538
scalar abilene_cost_network.node[1].core_layer 	data[1] 	152448
scalar abilene_cost_network.node[1].content_store 	p_hit[1] 	0.056296351322909
scalar abilene_cost_network.node[1].content_store 	hits[1] 	9094
scalar abilene_cost_network.node[1].content_store 	misses[1] 	152444
scalar abilene_cost_network.node[1].content_store 	decision_yes[1] 	1512
scalar abilene_cost_network.node[1].content_store 	decision_no[1] 	150935
scalar abilene_cost_network.node[1].content_store 	decision_ratio[1] 	0.0099182010797195
scalar abilene_cost_network.node[2].core_layer 	interests[2] 	106424
scalar abilene_cost_network.node[2].core_layer 	data[2] 	96720
scalar abilene_cost_network.node[2].content_store 	p_hit[2] 	0.091238818311659
scalar abilene_cost_network.node[2].content_store 	hits[2] 	9710
scalar abilene_cost_network.node[2].content_store 	misses[2] 	96714
scalar abilene_cost_network.node[2].content_store 	decision_yes[2] 	1007
scalar abilene_cost_network.node[2].content_store 	decision_no[2] 	95713
scalar abilene_cost_network.node[2].content_store 	decision_ratio[2] 	0.010411497105045
scalar abilene_cost_network.node[3].core_layer 	interests[3] 	99440
scalar abilene_cost_network.node[3].core_layer 	data[3] 	92567
scalar abilene_cost_network.node[3].content_store 	p_hit[3] 	0.069177393403057
scalar abilene_cost_network.node[3].content_store 	hits[3] 	6879
scalar abilene_cost_network.node[3].content_store 	misses[3] 	92561
scalar abilene_cost_network.node[3].content_store 	decision_yes[3] 	984
scalar abilene_cost_network.node[3].content_store 	decision_no[3] 	91583
scalar abilene_cost_network.node[3].content_store 	decision_ratio[3] 	0.01063013817019
scalar abilene_cost_network.node[4].core_layer 	interests[4] 	73306
scalar abilene_cost_network.node[4].core_layer 	data[4] 	66188
scalar abilene_cost_network.node[4].content_store 	p_hit[4] 	0.097168035358634
scalar abilene_cost_network.node[4].content_store 	hits[4] 	7123
scalar abilene_cost_network.node[4].content_store 	misses[4] 	66183
scalar abilene_cost_network.node[4].content_store 	decision_yes[4] 	670
scalar abilene_cost_network.node[4].content_store 	decision_no[4] 	65518
scalar abilene_cost_network.node[4].content_store 	decision_ratio[4] 	0.010122680848492
scalar abilene_cost_network.node[5].core_layer 	interests[5] 	180607
scalar abilene_cost_network.node[5].core_layer 	data[5] 	110821
scalar abilene_cost_network.node[5].content_store 	p_hit[5] 	0.38634715155005
scalar abilene_cost_network.node[5].content_store 	hits[5] 	69777
scalar abilene_cost_network.node[5].content_store 	misses[5] 	110830
scalar abilene_cost_network.node[5].content_store 	decision_yes[5] 	1113
scalar abilene_cost_network.node[5].content_store 	decision_no[5] 	109708
scalar abilene_cost_network.node[5].content_store 	decision_ratio[5] 	0.010043222854874
scalar abilene_cost_network.node[6].core_layer 	interests[6] 	41349
scalar abilene_cost_network.node[6].core_layer 	data[6] 	32617
scalar abilene_cost_network.node[6].content_store 	p_hit[6] 	0.21120220561561
scalar abilene_cost_network.node[6].content_store 	hits[6] 	8733
scalar abilene_cost_network.node[6].content_store 	misses[6] 	32616
scalar abilene_cost_network.node[6].content_store 	decision_yes[6] 	303
scalar abilene_cost_network.node[6].content_store 	decision_no[6] 	32314
scalar abilene_cost_network.node[6].content_store 	decision_ratio[6] 	0.0092896342398136
scalar abilene_cost_network.node[7].core_layer 	interests[7] 	90824
scalar abilene_cost_network.node[7].core_layer 	data[7] 	84348
scalar abilene_cost_network.node[7].content_store 	p_hit[7] 	0.071302739364045
scalar abilene_cost_network.node[7].content_store 	hits[7] 	6476
scalar abilene_cost_network.node[7].content_store 	misses[7] 	84348
scalar abilene_cost_network.node[7].content_store 	decision_yes[7] 	809
scalar abilene_cost_network.node[7].content_store 	decision_no[7] 	83539
scalar abilene_cost_network.node[7].content_store 	decision_ratio[7] 	0.0095912173376962
scalar abilene_cost_network.node[8].core_layer 	interests[8] 	47398
scalar abilene_cost_network.node[8].core_layer 	data[8] 	36543
scalar abilene_cost_network.node[8].content_store 	p_hit[8] 	0.22901810202962
scalar abilene_cost_network.node[8].content_store 	hits[8] 	10855
scalar abilene_cost_network.node[8].content_store 	misses[8] 	36543
scalar abilene_cost_network.node[8].content_store 	decision_yes[8] 	379
scalar abilene_cost_network.node[8].content_store 	decision_no[8] 	36164
scalar abilene_cost_network.node[8].content_store 	decision_ratio[8] 	0.010371343348931
scalar abilene_cost_network.node[9].core_layer 	interests[9] 	184834
scalar abilene_cost_network.node[9].core_layer 	data[9] 	110012
scalar abilene_cost_network.node[9].content_store 	p_hit[9] 	0.40462793641862
scalar abilene_cost_network.node[9].content_store 	hits[9] 	74789
scalar abilene_cost_network.node[9].content_store 	misses[9] 	110045
scalar abilene_cost_network.node[9].content_store 	decision_yes[9] 	1104
scalar abilene_cost_network.node[9].content_store 	decision_no[9] 	108908
scalar abilene_cost_network.node[9].content_store 	decision_ratio[9] 	0.010035268879759
scalar abilene_cost_network.node[10].core_layer 	interests[10] 	139105
scalar abilene_cost_network.node[10].core_layer 	data[10] 	123166
scalar abilene_cost_network.node[10].content_store 	p_hit[10] 	0.11458250961504
scalar abilene_cost_network.node[10].content_store 	hits[10] 	15939
scalar abilene_cost_network.node[10].content_store 	misses[10] 	123166
scalar abilene_cost_network.node[10].content_store 	decision_yes[10] 	1211
scalar abilene_cost_network.node[10].content_store 	decision_no[10] 	121955
scalar abilene_cost_network.node[10].content_store 	decision_ratio[10] 	0.0098322589026192
scalar abilene_cost_network.node[11].core_layer 	interests[11] 	85315
scalar abilene_cost_network.node[11].core_layer 	repo_load[11] 	85315
scalar abilene_cost_network.node[11].core_layer 	data[11] 	0
scalar abilene_cost_network.node[11].content_store 	p_hit[11] 	0
scalar abilene_cost_network.node[11].content_store 	hits[11] 	0
scalar abilene_cost_network.node[11].content_store 	misses[11] 	85315
scalar abilene_cost_network.node[11].content_store 	decision_yes[11] 	0
scalar abilene_cost_network.node[11].content_store 	decision_no[11] 	85315
scalar abilene_cost_network.node[11].content_store 	decision_ratio[11] 	0
scalar abilene_cost_network.node[12].core_layer 	interests[12] 	77960
scalar abilene_cost_network.node[12].core_layer 	repo_load[12] 	77960
scalar abilene_cost_network.node[12].core_layer 	data[12] 	0
scalar abilene_cost_network.node[12].content_store 	p_hit[12] 	0
scalar abilene_cost_network.node[12].content_store 	hits[12] 	0
scalar abilene_cost_network.node[12].content_store 	misses[12] 	77960
scalar abilene_cost_network.node[12].content_store 	decision_yes[12] 	0
scalar abilene_cost_network.node[12].content_store 	decision_no[12] 	77960
scalar abilene_cost_network.node[12].content_store 	decision_ratio[12] 	0
scalar abilene_cost_network.node[13].core_layer 	interests[13] 	84452
scalar abilene_cost_network.node[13].core_layer 	repo_load[13] 	84452
scalar abilene_cost_network.node[13].core_layer 	data[13] 	0
scalar abilene_cost_network.node[13].content_store 	p_hit[13] 	0
scalar abilene_cost_network.node[13].content_store 	hits[13] 	0
scalar abilene_cost_network.node[13].content_store 	misses[13] 	84452
scalar abilene_cost_network.node[13].content_store 	decision_yes[13] 	0
scalar abilene_cost_network.node[13].content_store 	decision_no[13] 	84452
scalar abilene_cost_network.node[13].content_store 	decision_ratio[13] 	0
scalar abilene_cost_network.client[0] 	hdistance[0] 	2.1350297671939
scalar abilene_cost_network.client[0] 	downloads[0] 	180064
scalar abilene_cost_network.client[0] 	avg_time[0] 	0.009074154104
scalar abilene_cost_network.client[0] 	interests_sent[0] 	180092
scalar abilene_cost_network.client[5] 	hdistance[5] 	2.944100791665
scalar abilene_cost_network.client[5] 	downloads[5] 	180253
scalar abilene_cost_network.client[5] 	avg_time[5] 	0.010830067441
scalar abilene_cost_network.client[5] 	interests_sent[5] 	180262
scalar abilene_cost_network.client[9] 	hdistance[9] 	1.9413848720801
scalar abilene_cost_network.client[9] 	downloads[9] 	179800
scalar abilene_cost_network.client[9] 	avg_time[9] 	0.008066630845
scalar abilene_cost_network.client[9] 	interests_sent[9] 	179833
