version 2
run General-18-20140626-16:45:08-16678
attr D fix0.01
attr F nrr
attr R lru
attr a 1
attr configname General
attr csize 1e3
attr ctlg 1e5
attr datetime 20140626-16:45:08
attr experiment General
attr inifile omnetpp.ini
attr iterationvars "$net=abilene_cost, $rep=7, $priceratiovalue=10, $weights=0.333_0.333_0.334, $lambda=100, $a=1, $ctlg=1e5, $F=nrr, $ttl=1000, $D=fix0.01, $xi=1, $R=lru, $csize=1e3, $pricebits=0, $mytime=1800"
attr iterationvars2 "$net=abilene_cost, $rep=7, $priceratiovalue=10, $weights=0.333_0.333_0.334, $lambda=100, $a=1, $ctlg=1e5, $F=nrr, $ttl=1000, $D=fix0.01, $xi=1, $R=lru, $csize=1e3, $pricebits=0, $mytime=1800, $repetition=0"
attr lambda 100
attr measurement "$net=abilene_cost, $rep=7, $priceratiovalue=10, $weights=0.333_0.333_0.334, $lambda=100, $a=1, $ctlg=1e5, $F=nrr, $ttl=1000, $D=fix0.01, $xi=1, $R=lru, $csize=1e3, $pricebits=0, $mytime=1800"
attr mytime 1800
attr net abilene_cost
attr network "networks.${net=geant_cost, abilene_cost}_network"
attr pricebits 0
attr priceratiovalue 10
attr processid 16678
attr rep 7
attr repetition 0
attr replication #0
attr resultdir results
attr runnumber 18
attr seedset 7
attr ttl 1000
attr weights 0.333_0.333_0.334
attr xi 1

scalar . 	a 	1
scalar . 	csize 	1e3
scalar . 	ctlg 	1e5
scalar . 	lambda 	100
scalar . 	mytime 	1800
scalar . 	pricebits 	0
scalar . 	priceratiovalue 	10
scalar . 	rep 	7
scalar . 	ttl 	1000
scalar . 	xi 	1
scalar abilene_cost_network.content_distribution 	repo-0 	11
scalar abilene_cost_network.content_distribution 	repo-1 	12
scalar abilene_cost_network.content_distribution 	repo-2 	13
scalar abilene_cost_network.content_distribution 	client-0 	5
scalar abilene_cost_network.content_distribution 	client-1 	0
scalar abilene_cost_network.content_distribution 	client-2 	9
scalar abilene_cost_network.content_distribution 	repo-0_card 	33104
scalar abilene_cost_network.content_distribution 	repo-1_card 	33508
scalar abilene_cost_network.content_distribution 	repo-2_card 	33388
scalar abilene_cost_network.statistics 	repo_popularity[0] 	0.34609068621501
scalar abilene_cost_network.statistics 	repo_popularity[1] 	0.29388785961082
scalar abilene_cost_network.statistics 	repo_popularity[2] 	0.36002145417417
scalar abilene_cost_network.statistics 	stabilization_time 	469
scalar abilene_cost_network.node[1].face$o[4].channel 	price[1] 	0
scalar abilene_cost_network.node[1].face$o[4].channel 	represented_price[1] 	0
scalar abilene_cost_network.node[7].face$o[4].channel 	price[7] 	0
scalar abilene_cost_network.node[7].face$o[4].channel 	represented_price[7] 	0
scalar abilene_cost_network.node[10].face$o[4].channel 	price[10] 	0
scalar abilene_cost_network.node[10].face$o[4].channel 	represented_price[10] 	0
scalar abilene_cost_network.node[11].face$o[1].channel 	price[11] 	0
scalar abilene_cost_network.node[11].face$o[1].channel 	represented_price[11] 	0
scalar abilene_cost_network.node[12].face$o[1].channel 	price[12] 	1
scalar abilene_cost_network.node[12].face$o[1].channel 	represented_price[12] 	1
scalar abilene_cost_network.node[13].face$o[1].channel 	price[13] 	10
scalar abilene_cost_network.node[13].face$o[1].channel 	represented_price[13] 	10
scalar abilene_cost_network.statistics 	p_hit 	0.18855544356912
scalar abilene_cost_network.statistics 	interests 	111124.57142857
scalar abilene_cost_network.statistics 	data 	72523.214285714
scalar abilene_cost_network.statistics 	hdistance 	2.336230682282
scalar abilene_cost_network.statistics 	avg_time 	0.009356841038
scalar abilene_cost_network.statistics 	downloads 	540341
scalar abilene_cost_network.statistics 	total_cost 	913744
scalar abilene_cost_network.statistics 	total_replicas 	100000
scalar abilene_cost_network.statistics 	inner_hit 	0.54288865734786
scalar abilene_cost_network.statistics 	interests_sent 	540422
scalar abilene_cost_network.node[0].core_layer 	interests[0] 	183612
scalar abilene_cost_network.node[0].core_layer 	data[0] 	110845
scalar abilene_cost_network.node[0].core_layer 	repo_int[0] 	246996
scalar abilene_cost_network.node[0].content_store 	p_hit[0] 	0.39615057839357
scalar abilene_cost_network.node[0].content_store 	hits[0] 	72738
scalar abilene_cost_network.node[0].content_store 	misses[0] 	110874
scalar abilene_cost_network.node[0].content_store 	decision_yes[0] 	1093
scalar abilene_cost_network.node[0].content_store 	decision_no[0] 	109752
scalar abilene_cost_network.node[0].content_store 	decision_ratio[0] 	0.0098606161757409
scalar abilene_cost_network.node[1].core_layer 	interests[1] 	162092
scalar abilene_cost_network.node[1].core_layer 	data[1] 	151710
scalar abilene_cost_network.node[1].content_store 	p_hit[1] 	0.064056214989019
scalar abilene_cost_network.node[1].content_store 	hits[1] 	10383
scalar abilene_cost_network.node[1].content_store 	misses[1] 	151709
scalar abilene_cost_network.node[1].content_store 	decision_yes[1] 	1484
scalar abilene_cost_network.node[1].content_store 	decision_no[1] 	150226
scalar abilene_cost_network.node[1].content_store 	decision_ratio[1] 	0.0097818205787357
scalar abilene_cost_network.node[2].core_layer 	interests[2] 	106714
scalar abilene_cost_network.node[2].core_layer 	data[2] 	96688
scalar abilene_cost_network.node[2].content_store 	p_hit[2] 	0.093961429615608
scalar abilene_cost_network.node[2].content_store 	hits[2] 	10027
scalar abilene_cost_network.node[2].content_store 	misses[2] 	96687
scalar abilene_cost_network.node[2].content_store 	decision_yes[2] 	937
scalar abilene_cost_network.node[2].content_store 	decision_no[2] 	95751
scalar abilene_cost_network.node[2].content_store 	decision_ratio[2] 	0.0096909647526063
scalar abilene_cost_network.node[3].core_layer 	interests[3] 	99695
scalar abilene_cost_network.node[3].core_layer 	data[3] 	92311
scalar abilene_cost_network.node[3].content_store 	p_hit[3] 	0.074065900998044
scalar abilene_cost_network.node[3].content_store 	hits[3] 	7384
scalar abilene_cost_network.node[3].content_store 	misses[3] 	92311
scalar abilene_cost_network.node[3].content_store 	decision_yes[3] 	909
scalar abilene_cost_network.node[3].content_store 	decision_no[3] 	91402
scalar abilene_cost_network.node[3].content_store 	decision_ratio[3] 	0.009847147143894
scalar abilene_cost_network.node[4].core_layer 	interests[4] 	73218
scalar abilene_cost_network.node[4].core_layer 	data[4] 	65856
scalar abilene_cost_network.node[4].content_store 	p_hit[4] 	0.10054904531673
scalar abilene_cost_network.node[4].content_store 	hits[4] 	7362
scalar abilene_cost_network.node[4].content_store 	misses[4] 	65856
scalar abilene_cost_network.node[4].content_store 	decision_yes[4] 	655
scalar abilene_cost_network.node[4].content_store 	decision_no[4] 	65201
scalar abilene_cost_network.node[4].content_store 	decision_ratio[4] 	0.0099459426627794
scalar abilene_cost_network.node[5].core_layer 	interests[5] 	180388
scalar abilene_cost_network.node[5].core_layer 	data[5] 	110030
scalar abilene_cost_network.node[5].content_store 	p_hit[5] 	0.38991507195601
scalar abilene_cost_network.node[5].content_store 	hits[5] 	70336
scalar abilene_cost_network.node[5].content_store 	misses[5] 	110052
scalar abilene_cost_network.node[5].content_store 	decision_yes[5] 	1049
scalar abilene_cost_network.node[5].content_store 	decision_no[5] 	108981
scalar abilene_cost_network.node[5].content_store 	decision_ratio[5] 	0.0095337635190403
scalar abilene_cost_network.node[6].core_layer 	interests[6] 	40544
scalar abilene_cost_network.node[6].core_layer 	data[6] 	33442
scalar abilene_cost_network.node[6].content_store 	p_hit[6] 	0.17516771902131
scalar abilene_cost_network.node[6].content_store 	hits[6] 	7102
scalar abilene_cost_network.node[6].content_store 	misses[6] 	33442
scalar abilene_cost_network.node[6].content_store 	decision_yes[6] 	319
scalar abilene_cost_network.node[6].content_store 	decision_no[6] 	33123
scalar abilene_cost_network.node[6].content_store 	decision_ratio[6] 	0.0095389031756474
scalar abilene_cost_network.node[7].core_layer 	interests[7] 	91941
scalar abilene_cost_network.node[7].core_layer 	data[7] 	85566
scalar abilene_cost_network.node[7].content_store 	p_hit[7] 	0.069327068446069
scalar abilene_cost_network.node[7].content_store 	hits[7] 	6374
scalar abilene_cost_network.node[7].content_store 	misses[7] 	85567
scalar abilene_cost_network.node[7].content_store 	decision_yes[7] 	858
scalar abilene_cost_network.node[7].content_store 	decision_no[7] 	84708
scalar abilene_cost_network.node[7].content_store 	decision_ratio[7] 	0.010027347310848
scalar abilene_cost_network.node[8].core_layer 	interests[8] 	48775
scalar abilene_cost_network.node[8].core_layer 	data[8] 	37350
scalar abilene_cost_network.node[8].content_store 	p_hit[8] 	0.23425935417734
scalar abilene_cost_network.node[8].content_store 	hits[8] 	11426
scalar abilene_cost_network.node[8].content_store 	misses[8] 	37349
scalar abilene_cost_network.node[8].content_store 	decision_yes[8] 	342
scalar abilene_cost_network.node[8].content_store 	decision_no[8] 	37008
scalar abilene_cost_network.node[8].content_store 	decision_ratio[8] 	0.0091566265060241
scalar abilene_cost_network.node[9].core_layer 	interests[9] 	184592
scalar abilene_cost_network.node[9].core_layer 	data[9] 	110504
scalar abilene_cost_network.node[9].content_store 	p_hit[9] 	0.40119831845367
scalar abilene_cost_network.node[9].content_store 	hits[9] 	74058
scalar abilene_cost_network.node[9].content_store 	misses[9] 	110534
scalar abilene_cost_network.node[9].content_store 	decision_yes[9] 	1048
scalar abilene_cost_network.node[9].content_store 	decision_no[9] 	109456
scalar abilene_cost_network.node[9].content_store 	decision_ratio[9] 	0.0094838195902411
scalar abilene_cost_network.node[10].core_layer 	interests[10] 	137177
scalar abilene_cost_network.node[10].core_layer 	data[10] 	121023
scalar abilene_cost_network.node[10].content_store 	p_hit[10] 	0.11776026593379
scalar abilene_cost_network.node[10].content_store 	hits[10] 	16154
scalar abilene_cost_network.node[10].content_store 	misses[10] 	121023
scalar abilene_cost_network.node[10].content_store 	decision_yes[10] 	1149
scalar abilene_cost_network.node[10].content_store 	decision_no[10] 	119874
scalar abilene_cost_network.node[10].content_store 	decision_ratio[10] 	0.0094940631119705
scalar abilene_cost_network.node[11].core_layer 	interests[11] 	84356
scalar abilene_cost_network.node[11].core_layer 	repo_load[11] 	84356
scalar abilene_cost_network.node[11].core_layer 	data[11] 	0
scalar abilene_cost_network.node[11].content_store 	p_hit[11] 	0
scalar abilene_cost_network.node[11].content_store 	hits[11] 	0
scalar abilene_cost_network.node[11].content_store 	misses[11] 	84356
scalar abilene_cost_network.node[11].content_store 	decision_yes[11] 	0
scalar abilene_cost_network.node[11].content_store 	decision_no[11] 	84356
scalar abilene_cost_network.node[11].content_store 	decision_ratio[11] 	0
scalar abilene_cost_network.node[12].core_layer 	interests[12] 	79184
scalar abilene_cost_network.node[12].core_layer 	repo_load[12] 	79184
scalar abilene_cost_network.node[12].core_layer 	data[12] 	0
scalar abilene_cost_network.node[12].content_store 	p_hit[12] 	0
scalar abilene_cost_network.node[12].content_store 	hits[12] 	0
scalar abilene_cost_network.node[12].content_store 	misses[12] 	79184
scalar abilene_cost_network.node[12].content_store 	decision_yes[12] 	0
scalar abilene_cost_network.node[12].content_store 	decision_no[12] 	79184
scalar abilene_cost_network.node[12].content_store 	decision_ratio[12] 	0
scalar abilene_cost_network.node[13].core_layer 	interests[13] 	83456
scalar abilene_cost_network.node[13].core_layer 	repo_load[13] 	83456
scalar abilene_cost_network.node[13].core_layer 	data[13] 	0
scalar abilene_cost_network.node[13].content_store 	p_hit[13] 	0
scalar abilene_cost_network.node[13].content_store 	hits[13] 	0
scalar abilene_cost_network.node[13].content_store 	misses[13] 	83456
scalar abilene_cost_network.node[13].content_store 	decision_yes[13] 	0
scalar abilene_cost_network.node[13].content_store 	decision_no[13] 	83456
scalar abilene_cost_network.node[13].content_store 	decision_ratio[13] 	0
scalar abilene_cost_network.client[0] 	hdistance[0] 	2.1281598569771
scalar abilene_cost_network.client[0] 	downloads[0] 	180111
scalar abilene_cost_network.client[0] 	avg_time[0] 	0.009077818573
scalar abilene_cost_network.client[0] 	interests_sent[0] 	180140
scalar abilene_cost_network.client[5] 	hdistance[5] 	2.9410144492942
scalar abilene_cost_network.client[5] 	downloads[5] 	180078
scalar abilene_cost_network.client[5] 	avg_time[5] 	0.01084072764
scalar abilene_cost_network.client[5] 	interests_sent[5] 	180100
scalar abilene_cost_network.client[9] 	hdistance[9] 	1.9395177405746
scalar abilene_cost_network.client[9] 	downloads[9] 	180152
scalar abilene_cost_network.client[9] 	avg_time[9] 	0.008151976903
scalar abilene_cost_network.client[9] 	interests_sent[9] 	180182
