version 2
run General-50-20140627-19:49:02-22873
attr D fix0.01
attr F nrr
attr R lru
attr a 1
attr configname General
attr csize 1e3
attr ctlg 1e5
attr datetime 20140627-19:49:02
attr experiment General
attr inifile omnetpp.ini
attr iterationvars "$net=abilene_cost, $rep=16, $priceratiovalue=10, $weights=0.333_0.333_0.334, $lambda=100, $a=1, $ctlg=1e5, $F=nrr, $ttl=1000, $D=fix0.01, $xi=1, $R=lru, $csize=1e3, $pricebits=0, $window=60, $variance=0.05, $mytime=1800"
attr iterationvars2 "$net=abilene_cost, $rep=16, $priceratiovalue=10, $weights=0.333_0.333_0.334, $lambda=100, $a=1, $ctlg=1e5, $F=nrr, $ttl=1000, $D=fix0.01, $xi=1, $R=lru, $csize=1e3, $pricebits=0, $window=60, $variance=0.05, $mytime=1800, $repetition=0"
attr lambda 100
attr measurement "$net=abilene_cost, $rep=16, $priceratiovalue=10, $weights=0.333_0.333_0.334, $lambda=100, $a=1, $ctlg=1e5, $F=nrr, $ttl=1000, $D=fix0.01, $xi=1, $R=lru, $csize=1e3, $pricebits=0, $window=60, $variance=0.05, $mytime=1800"
attr mytime 1800
attr net abilene_cost
attr network "networks.${net=geant_cost, abilene_cost}_network"
attr pricebits 0
attr priceratiovalue 10
attr processid 22873
attr rep 16
attr repetition 0
attr replication #0
attr resultdir results
attr runnumber 50
attr seedset 16
attr ttl 1000
attr variance 0.05
attr weights 0.333_0.333_0.334
attr window 60
attr xi 1

scalar . 	a 	1
scalar . 	csize 	1e3
scalar . 	ctlg 	1e5
scalar . 	lambda 	100
scalar . 	mytime 	1800
scalar . 	pricebits 	0
scalar . 	priceratiovalue 	10
scalar . 	rep 	16
scalar . 	ttl 	1000
scalar . 	variance 	0.05
scalar . 	window 	60
scalar . 	xi 	1
scalar abilene_cost_network.content_distribution 	repo-0 	11
scalar abilene_cost_network.content_distribution 	repo-1 	12
scalar abilene_cost_network.content_distribution 	repo-2 	13
scalar abilene_cost_network.content_distribution 	client-0 	5
scalar abilene_cost_network.content_distribution 	client-1 	0
scalar abilene_cost_network.content_distribution 	client-2 	9
scalar abilene_cost_network.content_distribution 	repo-0_card 	33302
scalar abilene_cost_network.content_distribution 	repo-1_card 	33208
scalar abilene_cost_network.content_distribution 	repo-2_card 	33490
scalar abilene_cost_network.statistics 	repo_popularity[0] 	0.38028263519115
scalar abilene_cost_network.statistics 	repo_popularity[1] 	0.2853641311191
scalar abilene_cost_network.statistics 	repo_popularity[2] 	0.33435323368975
scalar abilene_cost_network.statistics 	stabilization_time 	582.5
scalar abilene_cost_network.node[1].face$o[4].channel 	price[1] 	0
scalar abilene_cost_network.node[1].face$o[4].channel 	represented_price[1] 	0
scalar abilene_cost_network.node[7].face$o[4].channel 	price[7] 	0
scalar abilene_cost_network.node[7].face$o[4].channel 	represented_price[7] 	0
scalar abilene_cost_network.node[10].face$o[4].channel 	price[10] 	0
scalar abilene_cost_network.node[10].face$o[4].channel 	represented_price[10] 	0
scalar abilene_cost_network.node[11].face$o[1].channel 	price[11] 	0
scalar abilene_cost_network.node[11].face$o[1].channel 	represented_price[11] 	0
scalar abilene_cost_network.node[12].face$o[1].channel 	price[12] 	1
scalar abilene_cost_network.node[12].face$o[1].channel 	represented_price[12] 	1
scalar abilene_cost_network.node[13].face$o[1].channel 	price[13] 	10
scalar abilene_cost_network.node[13].face$o[1].channel 	represented_price[13] 	10
scalar abilene_cost_network.statistics 	p_hit 	0.18932758205793
scalar abilene_cost_network.statistics 	interests 	110716.64285714
scalar abilene_cost_network.statistics 	data 	72106.428571429
scalar abilene_cost_network.statistics 	hdistance 	2.3250877606343
scalar abilene_cost_network.statistics 	avg_time 	0.00925984541
scalar abilene_cost_network.statistics 	downloads 	540470
scalar abilene_cost_network.statistics 	total_cost 	910393
scalar abilene_cost_network.statistics 	total_replicas 	100000
scalar abilene_cost_network.statistics 	inner_hit 	0.54298110903473
scalar abilene_cost_network.statistics 	interests_sent 	540545
scalar abilene_cost_network.node[0].core_layer 	interests[0] 	182788
scalar abilene_cost_network.node[0].core_layer 	data[0] 	109809
scalar abilene_cost_network.node[0].core_layer 	repo_int[0] 	247005
scalar abilene_cost_network.node[0].content_store 	p_hit[0] 	0.39911263321443
scalar abilene_cost_network.node[0].content_store 	hits[0] 	72953
scalar abilene_cost_network.node[0].content_store 	misses[0] 	109835
scalar abilene_cost_network.node[0].content_store 	decision_yes[0] 	1107
scalar abilene_cost_network.node[0].content_store 	decision_no[0] 	108702
scalar abilene_cost_network.node[0].content_store 	decision_ratio[0] 	0.010081140890091
scalar abilene_cost_network.node[1].core_layer 	interests[1] 	161039
scalar abilene_cost_network.node[1].core_layer 	data[1] 	150667
scalar abilene_cost_network.node[1].content_store 	p_hit[1] 	0.064406758611268
scalar abilene_cost_network.node[1].content_store 	hits[1] 	10372
scalar abilene_cost_network.node[1].content_store 	misses[1] 	150667
scalar abilene_cost_network.node[1].content_store 	decision_yes[1] 	1489
scalar abilene_cost_network.node[1].content_store 	decision_no[1] 	149178
scalar abilene_cost_network.node[1].content_store 	decision_ratio[1] 	0.0098827214984038
scalar abilene_cost_network.node[2].core_layer 	interests[2] 	105665
scalar abilene_cost_network.node[2].core_layer 	data[2] 	95800
scalar abilene_cost_network.node[2].content_store 	p_hit[2] 	0.093361094023565
scalar abilene_cost_network.node[2].content_store 	hits[2] 	9865
scalar abilene_cost_network.node[2].content_store 	misses[2] 	95800
scalar abilene_cost_network.node[2].content_store 	decision_yes[2] 	930
scalar abilene_cost_network.node[2].content_store 	decision_no[2] 	94870
scalar abilene_cost_network.node[2].content_store 	decision_ratio[2] 	0.0097077244258873
scalar abilene_cost_network.node[3].core_layer 	interests[3] 	98851
scalar abilene_cost_network.node[3].core_layer 	data[3] 	91573
scalar abilene_cost_network.node[3].content_store 	p_hit[3] 	0.073625962306906
scalar abilene_cost_network.node[3].content_store 	hits[3] 	7278
scalar abilene_cost_network.node[3].content_store 	misses[3] 	91573
scalar abilene_cost_network.node[3].content_store 	decision_yes[3] 	945
scalar abilene_cost_network.node[3].content_store 	decision_no[3] 	90628
scalar abilene_cost_network.node[3].content_store 	decision_ratio[3] 	0.010319635700479
scalar abilene_cost_network.node[4].core_layer 	interests[4] 	73576
scalar abilene_cost_network.node[4].core_layer 	data[4] 	66224
scalar abilene_cost_network.node[4].content_store 	p_hit[4] 	0.099923888224421
scalar abilene_cost_network.node[4].content_store 	hits[4] 	7352
scalar abilene_cost_network.node[4].content_store 	misses[4] 	66224
scalar abilene_cost_network.node[4].content_store 	decision_yes[4] 	696
scalar abilene_cost_network.node[4].content_store 	decision_no[4] 	65528
scalar abilene_cost_network.node[4].content_store 	decision_ratio[4] 	0.010509784972216
scalar abilene_cost_network.node[5].core_layer 	interests[5] 	180588
scalar abilene_cost_network.node[5].core_layer 	data[5] 	109611
scalar abilene_cost_network.node[5].content_store 	p_hit[5] 	0.39292201032184
scalar abilene_cost_network.node[5].content_store 	hits[5] 	70957
scalar abilene_cost_network.node[5].content_store 	misses[5] 	109631
scalar abilene_cost_network.node[5].content_store 	decision_yes[5] 	1092
scalar abilene_cost_network.node[5].content_store 	decision_no[5] 	108519
scalar abilene_cost_network.node[5].content_store 	decision_ratio[5] 	0.0099625037633084
scalar abilene_cost_network.node[6].core_layer 	interests[6] 	39875
scalar abilene_cost_network.node[6].core_layer 	data[6] 	32531
scalar abilene_cost_network.node[6].content_store 	p_hit[6] 	0.18420062695925
scalar abilene_cost_network.node[6].content_store 	hits[6] 	7345
scalar abilene_cost_network.node[6].content_store 	misses[6] 	32530
scalar abilene_cost_network.node[6].content_store 	decision_yes[6] 	326
scalar abilene_cost_network.node[6].content_store 	decision_no[6] 	32205
scalar abilene_cost_network.node[6].content_store 	decision_ratio[6] 	0.010021210537641
scalar abilene_cost_network.node[7].core_layer 	interests[7] 	89380
scalar abilene_cost_network.node[7].core_layer 	data[7] 	83029
scalar abilene_cost_network.node[7].content_store 	p_hit[7] 	0.071056164690087
scalar abilene_cost_network.node[7].content_store 	hits[7] 	6351
scalar abilene_cost_network.node[7].content_store 	misses[7] 	83029
scalar abilene_cost_network.node[7].content_store 	decision_yes[7] 	869
scalar abilene_cost_network.node[7].content_store 	decision_no[7] 	82160
scalar abilene_cost_network.node[7].content_store 	decision_ratio[7] 	0.0104662226451
scalar abilene_cost_network.node[8].core_layer 	interests[8] 	47590
scalar abilene_cost_network.node[8].core_layer 	data[8] 	36483
scalar abilene_cost_network.node[8].content_store 	p_hit[8] 	0.23338936751418
scalar abilene_cost_network.node[8].content_store 	hits[8] 	11107
scalar abilene_cost_network.node[8].content_store 	misses[8] 	36483
scalar abilene_cost_network.node[8].content_store 	decision_yes[8] 	413
scalar abilene_cost_network.node[8].content_store 	decision_no[8] 	36070
scalar abilene_cost_network.node[8].content_store 	decision_ratio[8] 	0.011320340980731
scalar abilene_cost_network.node[9].core_layer 	interests[9] 	184916
scalar abilene_cost_network.node[9].core_layer 	data[9] 	110305
scalar abilene_cost_network.node[9].content_store 	p_hit[9] 	0.40332907914945
scalar abilene_cost_network.node[9].content_store 	hits[9] 	74582
scalar abilene_cost_network.node[9].content_store 	misses[9] 	110334
scalar abilene_cost_network.node[9].content_store 	decision_yes[9] 	1113
scalar abilene_cost_network.node[9].content_store 	decision_no[9] 	109192
scalar abilene_cost_network.node[9].content_store 	decision_ratio[9] 	0.010090204433163
scalar abilene_cost_network.node[10].core_layer 	interests[10] 	138760
scalar abilene_cost_network.node[10].core_layer 	data[10] 	123458
scalar abilene_cost_network.node[10].content_store 	p_hit[10] 	0.11027673681176
scalar abilene_cost_network.node[10].content_store 	hits[10] 	15302
scalar abilene_cost_network.node[10].content_store 	misses[10] 	123458
scalar abilene_cost_network.node[10].content_store 	decision_yes[10] 	1223
scalar abilene_cost_network.node[10].content_store 	decision_no[10] 	122234
scalar abilene_cost_network.node[10].content_store 	decision_ratio[10] 	0.0099062831593186
scalar abilene_cost_network.node[11].core_layer 	interests[11] 	86933
scalar abilene_cost_network.node[11].core_layer 	repo_load[11] 	86933
scalar abilene_cost_network.node[11].core_layer 	data[11] 	0
scalar abilene_cost_network.node[11].content_store 	p_hit[11] 	0
scalar abilene_cost_network.node[11].content_store 	hits[11] 	0
scalar abilene_cost_network.node[11].content_store 	misses[11] 	86933
scalar abilene_cost_network.node[11].content_store 	decision_yes[11] 	0
scalar abilene_cost_network.node[11].content_store 	decision_no[11] 	86933
scalar abilene_cost_network.node[11].content_store 	decision_ratio[11] 	0
scalar abilene_cost_network.node[12].core_layer 	interests[12] 	76703
scalar abilene_cost_network.node[12].core_layer 	repo_load[12] 	76703
scalar abilene_cost_network.node[12].core_layer 	data[12] 	0
scalar abilene_cost_network.node[12].content_store 	p_hit[12] 	0
scalar abilene_cost_network.node[12].content_store 	hits[12] 	0
scalar abilene_cost_network.node[12].content_store 	misses[12] 	76703
scalar abilene_cost_network.node[12].content_store 	decision_yes[12] 	0
scalar abilene_cost_network.node[12].content_store 	decision_no[12] 	76703
scalar abilene_cost_network.node[12].content_store 	decision_ratio[12] 	0
scalar abilene_cost_network.node[13].core_layer 	interests[13] 	83369
scalar abilene_cost_network.node[13].core_layer 	repo_load[13] 	83369
scalar abilene_cost_network.node[13].core_layer 	data[13] 	0
scalar abilene_cost_network.node[13].content_store 	p_hit[13] 	0
scalar abilene_cost_network.node[13].content_store 	hits[13] 	0
scalar abilene_cost_network.node[13].content_store 	misses[13] 	83369
scalar abilene_cost_network.node[13].content_store 	decision_yes[13] 	0
scalar abilene_cost_network.node[13].content_store 	decision_no[13] 	83369
scalar abilene_cost_network.node[13].content_store 	decision_ratio[13] 	0
scalar abilene_cost_network.client[0] 	hdistance[0] 	2.1110314110798
scalar abilene_cost_network.client[0] 	downloads[0] 	179841
scalar abilene_cost_network.client[0] 	avg_time[0] 	0.008947041016
scalar abilene_cost_network.client[0] 	interests_sent[0] 	179867
scalar abilene_cost_network.client[5] 	hdistance[5] 	2.9321926594805
scalar abilene_cost_network.client[5] 	downloads[5] 	180069
scalar abilene_cost_network.client[5] 	avg_time[5] 	0.010813541731
scalar abilene_cost_network.client[5] 	interests_sent[5] 	180089
scalar abilene_cost_network.client[9] 	hdistance[9] 	1.9320392113425
scalar abilene_cost_network.client[9] 	downloads[9] 	180560
scalar abilene_cost_network.client[9] 	avg_time[9] 	0.008018953483
scalar abilene_cost_network.client[9] 	interests_sent[9] 	180589
