version 2
run General-0-20140512-15:43:31-4652
attr D never
attr F nrr
attr R lru
attr a 0
attr configname General
attr csize 10
attr ctlg 100
attr datetime 20140512-15:43:31
attr experiment General
attr inifile omnetpp.ini
attr iterationvars "$net=abilene_cost, $rep=1, $priceratiovalue=1, $weights=0.333_0.333_0.334, $a=0, $ctlg=100, $F=nrr, $ttl=1000, $D=never, $xi=1, $R=lru, $csize=10"
attr iterationvars2 "$net=abilene_cost, $rep=1, $priceratiovalue=1, $weights=0.333_0.333_0.334, $a=0, $ctlg=100, $F=nrr, $ttl=1000, $D=never, $xi=1, $R=lru, $csize=10, $repetition=0"
attr measurement "$net=abilene_cost, $rep=1, $priceratiovalue=1, $weights=0.333_0.333_0.334, $a=0, $ctlg=100, $F=nrr, $ttl=1000, $D=never, $xi=1, $R=lru, $csize=10"
attr net abilene_cost
attr network networks.${net=abilene_cost}_network
attr priceratiovalue 1
attr processid 4652
attr rep 1
attr repetition 0
attr replication #0
attr resultdir results
attr runnumber 0
attr seedset 1
attr ttl 1000
attr weights 0.333_0.333_0.334
attr xi 1

scalar . 	a 	0
scalar . 	csize 	10
scalar . 	ctlg 	100
scalar . 	priceratiovalue 	1
scalar . 	rep 	1
scalar . 	ttl 	1000
scalar . 	xi 	1
scalar abilene_cost_network.content_distribution 	repo-0 	11
scalar abilene_cost_network.content_distribution 	repo-1 	12
scalar abilene_cost_network.content_distribution 	repo-2 	13
scalar abilene_cost_network.content_distribution 	client-0 	3
scalar abilene_cost_network.content_distribution 	client-1 	7
scalar abilene_cost_network.content_distribution 	client-2 	10
scalar abilene_cost_network.content_distribution 	repo-0_card 	35
scalar abilene_cost_network.content_distribution 	repo-1_card 	37
scalar abilene_cost_network.content_distribution 	repo-2_card 	28
