version 2
run General-5-20140512-16:51:18-30176
attr D costprobprodcorr0.01
attr F spr
attr R lru
attr a 1
attr configname General
attr csize 1e3
attr ctlg 1e5
attr datetime 20140512-16:51:18
attr experiment General
attr inifile omnetpp.ini
attr iterationvars "$net=abilene_cost, $rep=1, $priceratiovalue=10, $weights=0.333_0.333_0.334, $a=1, $ctlg=1e5, $F=spr, $ttl=1000, $D=costprobprodcorr0.01, $xi=1.25, $R=lru, $csize=1e3"
attr iterationvars2 "$net=abilene_cost, $rep=1, $priceratiovalue=10, $weights=0.333_0.333_0.334, $a=1, $ctlg=1e5, $F=spr, $ttl=1000, $D=costprobprodcorr0.01, $xi=1.25, $R=lru, $csize=1e3, $repetition=0"
attr measurement "$net=abilene_cost, $rep=1, $priceratiovalue=10, $weights=0.333_0.333_0.334, $a=1, $ctlg=1e5, $F=spr, $ttl=1000, $D=costprobprodcorr0.01, $xi=1.25, $R=lru, $csize=1e3"
attr net abilene_cost
attr network networks.${net=abilene_cost}_network
attr priceratiovalue 10
attr processid 30176
attr rep 1
attr repetition 0
attr replication #0
attr resultdir results
attr runnumber 5
attr seedset 1
attr ttl 1000
attr weights 0.333_0.333_0.334
attr xi 1.25

scalar . 	a 	1
scalar . 	csize 	1e3
scalar . 	ctlg 	1e5
scalar . 	priceratiovalue 	10
scalar . 	rep 	1
scalar . 	ttl 	1000
scalar . 	xi 	1.25
scalar abilene_cost_network.content_distribution 	repo-0 	11
scalar abilene_cost_network.content_distribution 	repo-1 	12
scalar abilene_cost_network.content_distribution 	repo-2 	13
scalar abilene_cost_network.content_distribution 	client-0 	3
scalar abilene_cost_network.content_distribution 	client-1 	7
scalar abilene_cost_network.content_distribution 	client-2 	10
scalar abilene_cost_network.content_distribution 	repo-0_card 	33396
scalar abilene_cost_network.content_distribution 	repo-1_card 	33039
scalar abilene_cost_network.content_distribution 	repo-2_card 	33565
scalar abilene_cost_network.statistics 	p_hit 	0.11069946731793
scalar abilene_cost_network.statistics 	interests 	143867.64285714
scalar abilene_cost_network.statistics 	data 	105364
scalar abilene_cost_network.statistics 	hdistance 	3.3230003122549
scalar abilene_cost_network.statistics 	avg_time 	0
scalar abilene_cost_network.statistics 	downloads 	539051
scalar abilene_cost_network.statistics 	total_cost 	936592
scalar abilene_cost_network.statistics 	total_replicas 	100000
scalar abilene_cost_network.statistics 	interests_sent 	539051
scalar abilene_cost_network.node[0].core_layer 	interests[0] 	153773
scalar abilene_cost_network.node[0].core_layer 	data[0] 	153773
scalar abilene_cost_network.node[0].core_layer 	repo_int[0] 	316086
scalar abilene_cost_network.node[0].content_store 	p_hit[0] 	0
scalar abilene_cost_network.node[0].content_store 	hits[0] 	0
scalar abilene_cost_network.node[0].content_store 	misses[0] 	153773
scalar abilene_cost_network.node[0].content_store 	decision_yes[0] 	0
scalar abilene_cost_network.node[0].content_store 	decision_no[0] 	153773
scalar abilene_cost_network.node[0].content_store 	decision_ratio[0] 	0
scalar abilene_cost_network.node[0].content_store 	correction_factor[0] 	0.0015942725492031
scalar abilene_cost_network.node[0].content_store 	xi[0] 	1.25
scalar abilene_cost_network.node[1].core_layer 	interests[1] 	101319
scalar abilene_cost_network.node[1].core_layer 	data[1] 	98459
scalar abilene_cost_network.node[1].content_store 	p_hit[1] 	0.028227676941146
scalar abilene_cost_network.node[1].content_store 	hits[1] 	2860
scalar abilene_cost_network.node[1].content_store 	misses[1] 	98459
scalar abilene_cost_network.node[1].content_store 	decision_yes[1] 	27
scalar abilene_cost_network.node[1].content_store 	decision_no[1] 	98432
scalar abilene_cost_network.node[1].content_store 	decision_ratio[1] 	0.00027422581988442
scalar abilene_cost_network.node[1].content_store 	correction_factor[1] 	0.0015942725492031
scalar abilene_cost_network.node[1].content_store 	xi[1] 	1.25
scalar abilene_cost_network.node[2].core_layer 	interests[2] 	98459
scalar abilene_cost_network.node[2].core_layer 	data[2] 	95029
scalar abilene_cost_network.node[2].content_store 	p_hit[2] 	0.034836835637169
scalar abilene_cost_network.node[2].content_store 	hits[2] 	3430
scalar abilene_cost_network.node[2].content_store 	misses[2] 	95029
scalar abilene_cost_network.node[2].content_store 	decision_yes[2] 	37
scalar abilene_cost_network.node[2].content_store 	decision_no[2] 	94992
scalar abilene_cost_network.node[2].content_store 	decision_ratio[2] 	0.00038935482852603
scalar abilene_cost_network.node[2].content_store 	correction_factor[2] 	0.0015942725492031
scalar abilene_cost_network.node[2].content_store 	xi[2] 	1.25
scalar abilene_cost_network.node[3].core_layer 	interests[3] 	223612
scalar abilene_cost_network.node[3].core_layer 	data[3] 	205612
scalar abilene_cost_network.node[3].content_store 	p_hit[3] 	0.080496574423555
scalar abilene_cost_network.node[3].content_store 	hits[3] 	18000
scalar abilene_cost_network.node[3].content_store 	misses[3] 	205612
scalar abilene_cost_network.node[3].content_store 	decision_yes[3] 	880
scalar abilene_cost_network.node[3].content_store 	decision_no[3] 	204732
scalar abilene_cost_network.node[3].content_store 	decision_ratio[3] 	0.0042799058420715
scalar abilene_cost_network.node[3].content_store 	correction_factor[3] 	0.0015942725492031
scalar abilene_cost_network.node[3].content_store 	xi[3] 	1.25
scalar abilene_cost_network.node[4].core_layer 	interests[4] 	87768
scalar abilene_cost_network.node[4].core_layer 	data[4] 	62561
scalar abilene_cost_network.node[4].content_store 	p_hit[4] 	0.2872003463677
scalar abilene_cost_network.node[4].content_store 	hits[4] 	25207
scalar abilene_cost_network.node[4].content_store 	misses[4] 	62561
scalar abilene_cost_network.node[4].content_store 	decision_yes[4] 	82
scalar abilene_cost_network.node[4].content_store 	decision_no[4] 	62479
scalar abilene_cost_network.node[4].content_store 	decision_ratio[4] 	0.0013107207365611
scalar abilene_cost_network.node[4].content_store 	correction_factor[4] 	0.0015942725492031
scalar abilene_cost_network.node[4].content_store 	xi[4] 	1.25
scalar abilene_cost_network.node[5].core_layer 	interests[5] 	104572
scalar abilene_cost_network.node[5].core_layer 	data[5] 	76282
scalar abilene_cost_network.node[5].content_store 	p_hit[5] 	0.27053130857208
scalar abilene_cost_network.node[5].content_store 	hits[5] 	28290
scalar abilene_cost_network.node[5].content_store 	misses[5] 	76282
scalar abilene_cost_network.node[5].content_store 	decision_yes[5] 	114
scalar abilene_cost_network.node[5].content_store 	decision_no[5] 	76168
scalar abilene_cost_network.node[5].content_store 	decision_ratio[5] 	0.0014944547861881
scalar abilene_cost_network.node[5].content_store 	correction_factor[5] 	0.0015942725492031
scalar abilene_cost_network.node[5].content_store 	xi[5] 	1.25
scalar abilene_cost_network.node[6].core_layer 	interests[6] 	48785
scalar abilene_cost_network.node[6].core_layer 	data[6] 	42011
scalar abilene_cost_network.node[6].content_store 	p_hit[6] 	0.13885415599057
scalar abilene_cost_network.node[6].content_store 	hits[6] 	6774
scalar abilene_cost_network.node[6].content_store 	misses[6] 	42011
scalar abilene_cost_network.node[6].content_store 	decision_yes[6] 	38
scalar abilene_cost_network.node[6].content_store 	decision_no[6] 	41973
scalar abilene_cost_network.node[6].content_store 	decision_ratio[6] 	0.00090452500535574
scalar abilene_cost_network.node[6].content_store 	correction_factor[6] 	0.0015942725492031
scalar abilene_cost_network.node[6].content_store 	xi[6] 	1.25
scalar abilene_cost_network.node[7].core_layer 	interests[7] 	246093
scalar abilene_cost_network.node[7].core_layer 	data[7] 	226651
scalar abilene_cost_network.node[7].content_store 	p_hit[7] 	0.079002653468404
scalar abilene_cost_network.node[7].content_store 	hits[7] 	19442
scalar abilene_cost_network.node[7].content_store 	misses[7] 	226651
scalar abilene_cost_network.node[7].content_store 	decision_yes[7] 	1619
scalar abilene_cost_network.node[7].content_store 	decision_no[7] 	225032
scalar abilene_cost_network.node[7].content_store 	decision_ratio[7] 	0.0071431407759066
scalar abilene_cost_network.node[7].content_store 	correction_factor[7] 	0.0015942725492031
scalar abilene_cost_network.node[7].content_store 	xi[7] 	1.25
scalar abilene_cost_network.node[8].core_layer 	interests[8] 	177866
scalar abilene_cost_network.node[8].core_layer 	data[8] 	170084
scalar abilene_cost_network.node[8].content_store 	p_hit[8] 	0.043752038051117
scalar abilene_cost_network.node[8].content_store 	hits[8] 	7782
scalar abilene_cost_network.node[8].content_store 	misses[8] 	170084
scalar abilene_cost_network.node[8].content_store 	decision_yes[8] 	1662
scalar abilene_cost_network.node[8].content_store 	decision_no[8] 	168422
scalar abilene_cost_network.node[8].content_store 	decision_ratio[8] 	0.0097716422473601
scalar abilene_cost_network.node[8].content_store 	correction_factor[8] 	0.0015942725492031
scalar abilene_cost_network.node[8].content_store 	xi[8] 	1.25
scalar abilene_cost_network.node[9].core_layer 	interests[9] 	224819
scalar abilene_cost_network.node[9].core_layer 	data[9] 	137209
scalar abilene_cost_network.node[9].content_store 	p_hit[9] 	0.38969126274914
scalar abilene_cost_network.node[9].content_store 	hits[9] 	87610
scalar abilene_cost_network.node[9].content_store 	misses[9] 	137209
scalar abilene_cost_network.node[9].content_store 	decision_yes[9] 	2517
scalar abilene_cost_network.node[9].content_store 	decision_no[9] 	134692
scalar abilene_cost_network.node[9].content_store 	decision_ratio[9] 	0.018344277707731
scalar abilene_cost_network.node[9].content_store 	correction_factor[9] 	0.0015942725492031
scalar abilene_cost_network.node[9].content_store 	xi[9] 	1.25
scalar abilene_cost_network.node[10].core_layer 	interests[10] 	230995
scalar abilene_cost_network.node[10].core_layer 	data[10] 	207425
scalar abilene_cost_network.node[10].content_store 	p_hit[10] 	0.10203684062426
scalar abilene_cost_network.node[10].content_store 	hits[10] 	23570
scalar abilene_cost_network.node[10].content_store 	misses[10] 	207425
scalar abilene_cost_network.node[10].content_store 	decision_yes[10] 	925
scalar abilene_cost_network.node[10].content_store 	decision_no[10] 	206500
scalar abilene_cost_network.node[10].content_store 	decision_ratio[10] 	0.0044594431722309
scalar abilene_cost_network.node[10].content_store 	correction_factor[10] 	0.0015942725492031
scalar abilene_cost_network.node[10].content_store 	xi[10] 	1.25
scalar abilene_cost_network.node[11].core_layer 	interests[11] 	153773
scalar abilene_cost_network.node[11].core_layer 	repo_load[11] 	153773
scalar abilene_cost_network.node[11].core_layer 	data[11] 	0
scalar abilene_cost_network.node[11].content_store 	p_hit[11] 	0
scalar abilene_cost_network.node[11].content_store 	hits[11] 	0
scalar abilene_cost_network.node[11].content_store 	misses[11] 	153773
scalar abilene_cost_network.node[11].content_store 	decision_yes[11] 	0
scalar abilene_cost_network.node[11].content_store 	decision_no[11] 	153773
scalar abilene_cost_network.node[11].content_store 	decision_ratio[11] 	0
scalar abilene_cost_network.node[12].core_layer 	interests[12] 	76282
scalar abilene_cost_network.node[12].core_layer 	repo_load[12] 	76282
scalar abilene_cost_network.node[12].core_layer 	data[12] 	0
scalar abilene_cost_network.node[12].content_store 	p_hit[12] 	0
scalar abilene_cost_network.node[12].content_store 	hits[12] 	0
scalar abilene_cost_network.node[12].content_store 	misses[12] 	76282
scalar abilene_cost_network.node[12].content_store 	decision_yes[12] 	0
scalar abilene_cost_network.node[12].content_store 	decision_no[12] 	76282
scalar abilene_cost_network.node[12].content_store 	decision_ratio[12] 	0
scalar abilene_cost_network.node[13].core_layer 	interests[13] 	86031
scalar abilene_cost_network.node[13].core_layer 	repo_load[13] 	86031
scalar abilene_cost_network.node[13].core_layer 	data[13] 	0
scalar abilene_cost_network.node[13].content_store 	p_hit[13] 	0
scalar abilene_cost_network.node[13].content_store 	hits[13] 	0
scalar abilene_cost_network.node[13].content_store 	misses[13] 	86031
scalar abilene_cost_network.node[13].content_store 	decision_yes[13] 	0
scalar abilene_cost_network.node[13].content_store 	decision_no[13] 	86031
scalar abilene_cost_network.node[13].content_store 	decision_ratio[13] 	0
scalar abilene_cost_network.client[3] 	hdistance[3] 	3.5018577848974
scalar abilene_cost_network.client[3] 	downloads[3] 	179784
scalar abilene_cost_network.client[3] 	avg_time[3] 	0
scalar abilene_cost_network.client[3] 	interests_sent[3] 	179784
scalar abilene_cost_network.client[7] 	hdistance[7] 	3.5375480635274
scalar abilene_cost_network.client[7] 	downloads[7] 	179450
scalar abilene_cost_network.client[7] 	avg_time[7] 	0
scalar abilene_cost_network.client[7] 	interests_sent[7] 	179450
scalar abilene_cost_network.client[10] 	hdistance[10] 	2.9295950883398
scalar abilene_cost_network.client[10] 	downloads[10] 	179817
scalar abilene_cost_network.client[10] 	avg_time[10] 	0
scalar abilene_cost_network.client[10] 	interests_sent[10] 	179817
