version 2
run General-1-20140623-17:41:40-17238
attr D fix0.01
attr F nrr
attr R lru
attr a 1
attr configname General
attr csize 1e3
attr ctlg 1e5
attr datetime 20140623-17:41:40
attr experiment General
attr inifile omnetpp.ini
attr iterationvars "$net=abilene_cost, $rep=1, $priceratiovalue=10, $weights=0.333_0.333_0.334, $lambda=100, $a=1, $ctlg=1e5, $F=nrr, $ttl=1000, $D=fix0.01, $xi=1, $R=lru, $csize=1e3, $pricebits=0, $mytime=1800"
attr iterationvars2 "$net=abilene_cost, $rep=1, $priceratiovalue=10, $weights=0.333_0.333_0.334, $lambda=100, $a=1, $ctlg=1e5, $F=nrr, $ttl=1000, $D=fix0.01, $xi=1, $R=lru, $csize=1e3, $pricebits=0, $mytime=1800, $repetition=0"
attr lambda 100
attr measurement "$net=abilene_cost, $rep=1, $priceratiovalue=10, $weights=0.333_0.333_0.334, $lambda=100, $a=1, $ctlg=1e5, $F=nrr, $ttl=1000, $D=fix0.01, $xi=1, $R=lru, $csize=1e3, $pricebits=0, $mytime=1800"
attr mytime 1800
attr net abilene_cost
attr network "networks.${net=abilene_cost, geant_cost}_network"
attr pricebits 0
attr priceratiovalue 10
attr processid 17238
attr rep 1
attr repetition 0
attr replication #0
attr resultdir results
attr runnumber 1
attr seedset 1
attr ttl 1000
attr weights 0.333_0.333_0.334
attr xi 1

scalar . 	a 	1
scalar . 	csize 	1e3
scalar . 	ctlg 	1e5
scalar . 	lambda 	100
scalar . 	mytime 	1800
scalar . 	pricebits 	0
scalar . 	priceratiovalue 	10
scalar . 	rep 	1
scalar . 	ttl 	1000
scalar . 	xi 	1
scalar abilene_cost_network.content_distribution 	repo-0 	11
scalar abilene_cost_network.content_distribution 	repo-1 	12
scalar abilene_cost_network.content_distribution 	repo-2 	13
scalar abilene_cost_network.content_distribution 	client-0 	5
scalar abilene_cost_network.content_distribution 	client-1 	0
scalar abilene_cost_network.content_distribution 	client-2 	9
scalar abilene_cost_network.content_distribution 	repo-0_card 	33396
scalar abilene_cost_network.content_distribution 	repo-1_card 	33039
scalar abilene_cost_network.content_distribution 	repo-2_card 	33565
scalar abilene_cost_network.statistics 	repo_popularity[0] 	0.28686251265602
scalar abilene_cost_network.statistics 	repo_popularity[1] 	0.2886063426465
scalar abilene_cost_network.statistics 	repo_popularity[2] 	0.42453114469748
scalar abilene_cost_network.node[1].face$o[4].channel 	price[1] 	0
scalar abilene_cost_network.node[1].face$o[4].channel 	represented_price[1] 	0
scalar abilene_cost_network.node[7].face$o[4].channel 	price[7] 	0
scalar abilene_cost_network.node[7].face$o[4].channel 	represented_price[7] 	0
scalar abilene_cost_network.node[10].face$o[4].channel 	price[10] 	0
scalar abilene_cost_network.node[10].face$o[4].channel 	represented_price[10] 	0
scalar abilene_cost_network.node[11].face$o[1].channel 	price[11] 	0
scalar abilene_cost_network.node[11].face$o[1].channel 	represented_price[11] 	0
scalar abilene_cost_network.node[12].face$o[1].channel 	price[12] 	1
scalar abilene_cost_network.node[12].face$o[1].channel 	represented_price[12] 	1
scalar abilene_cost_network.node[13].face$o[1].channel 	price[13] 	10
scalar abilene_cost_network.node[13].face$o[1].channel 	represented_price[13] 	10
scalar abilene_cost_network.statistics 	p_hit 	0.14512722631942
scalar abilene_cost_network.statistics 	interests 	25298
scalar abilene_cost_network.statistics 	data 	17393.5
scalar abilene_cost_network.statistics 	hdistance 	2.7403043554718
scalar abilene_cost_network.statistics 	avg_time 	0.010908585454
scalar abilene_cost_network.statistics 	downloads 	110473
scalar abilene_cost_network.statistics 	total_cost 	220135
scalar abilene_cost_network.statistics 	total_replicas 	100000
scalar abilene_cost_network.statistics 	inner_hit 	0.46526300544024
scalar abilene_cost_network.statistics 	interests_sent 	110659
scalar abilene_cost_network.node[0].core_layer 	interests[0] 	37819
scalar abilene_cost_network.node[0].core_layer 	data[0] 	26535
scalar abilene_cost_network.node[0].core_layer 	repo_int[0] 	59074
scalar abilene_cost_network.node[0].content_store 	p_hit[0] 	0.29641185647426
scalar abilene_cost_network.node[0].content_store 	hits[0] 	11210
scalar abilene_cost_network.node[0].content_store 	misses[0] 	26609
scalar abilene_cost_network.node[0].content_store 	decision_yes[0] 	262
scalar abilene_cost_network.node[0].content_store 	decision_no[0] 	26273
scalar abilene_cost_network.node[0].content_store 	decision_ratio[0] 	0.0098737516487658
scalar abilene_cost_network.node[1].core_layer 	interests[1] 	39361
scalar abilene_cost_network.node[1].core_layer 	data[1] 	35849
scalar abilene_cost_network.node[1].content_store 	p_hit[1] 	0.089225375371561
scalar abilene_cost_network.node[1].content_store 	hits[1] 	3512
scalar abilene_cost_network.node[1].content_store 	misses[1] 	35849
scalar abilene_cost_network.node[1].content_store 	decision_yes[1] 	387
scalar abilene_cost_network.node[1].content_store 	decision_no[1] 	35462
scalar abilene_cost_network.node[1].content_store 	decision_ratio[1] 	0.010795280203074
scalar abilene_cost_network.node[2].core_layer 	interests[2] 	24805
scalar abilene_cost_network.node[2].core_layer 	data[2] 	22676
scalar abilene_cost_network.node[2].content_store 	p_hit[2] 	0.085829469864947
scalar abilene_cost_network.node[2].content_store 	hits[2] 	2129
scalar abilene_cost_network.node[2].content_store 	misses[2] 	22676
scalar abilene_cost_network.node[2].content_store 	decision_yes[2] 	220
scalar abilene_cost_network.node[2].content_store 	decision_no[2] 	22456
scalar abilene_cost_network.node[2].content_store 	decision_ratio[2] 	0.0097018874581055
scalar abilene_cost_network.node[3].core_layer 	interests[3] 	24083
scalar abilene_cost_network.node[3].core_layer 	data[3] 	22346
scalar abilene_cost_network.node[3].content_store 	p_hit[3] 	0.072125565751775
scalar abilene_cost_network.node[3].content_store 	hits[3] 	1737
scalar abilene_cost_network.node[3].content_store 	misses[3] 	22346
scalar abilene_cost_network.node[3].content_store 	decision_yes[3] 	213
scalar abilene_cost_network.node[3].content_store 	decision_no[3] 	22133
scalar abilene_cost_network.node[3].content_store 	decision_ratio[3] 	0.0095319072764701
scalar abilene_cost_network.node[4].core_layer 	interests[4] 	18003
scalar abilene_cost_network.node[4].core_layer 	data[4] 	16341
scalar abilene_cost_network.node[4].content_store 	p_hit[4] 	0.092317947008832
scalar abilene_cost_network.node[4].content_store 	hits[4] 	1662
scalar abilene_cost_network.node[4].content_store 	misses[4] 	16341
scalar abilene_cost_network.node[4].content_store 	decision_yes[4] 	153
scalar abilene_cost_network.node[4].content_store 	decision_no[4] 	16188
scalar abilene_cost_network.node[4].content_store 	decision_ratio[4] 	0.0093629520837158
scalar abilene_cost_network.node[5].core_layer 	interests[5] 	37218
scalar abilene_cost_network.node[5].core_layer 	data[5] 	26446
scalar abilene_cost_network.node[5].content_store 	p_hit[5] 	0.28771024772959
scalar abilene_cost_network.node[5].content_store 	hits[5] 	10708
scalar abilene_cost_network.node[5].content_store 	misses[5] 	26510
scalar abilene_cost_network.node[5].content_store 	decision_yes[5] 	240
scalar abilene_cost_network.node[5].content_store 	decision_no[5] 	26206
scalar abilene_cost_network.node[5].content_store 	decision_ratio[5] 	0.0090750964228995
scalar abilene_cost_network.node[6].core_layer 	interests[6] 	9231
scalar abilene_cost_network.node[6].core_layer 	data[6] 	8434
scalar abilene_cost_network.node[6].content_store 	p_hit[6] 	0.086231177553894
scalar abilene_cost_network.node[6].content_store 	hits[6] 	796
scalar abilene_cost_network.node[6].content_store 	misses[6] 	8435
scalar abilene_cost_network.node[6].content_store 	decision_yes[6] 	74
scalar abilene_cost_network.node[6].content_store 	decision_no[6] 	8360
scalar abilene_cost_network.node[6].content_store 	decision_ratio[6] 	0.008774009959687
scalar abilene_cost_network.node[7].core_layer 	interests[7] 	22515
scalar abilene_cost_network.node[7].core_layer 	data[7] 	19814
scalar abilene_cost_network.node[7].content_store 	p_hit[7] 	0.1199200532978
scalar abilene_cost_network.node[7].content_store 	hits[7] 	2700
scalar abilene_cost_network.node[7].content_store 	misses[7] 	19815
scalar abilene_cost_network.node[7].content_store 	decision_yes[7] 	195
scalar abilene_cost_network.node[7].content_store 	decision_no[7] 	19619
scalar abilene_cost_network.node[7].content_store 	decision_ratio[7] 	0.0098415261936005
scalar abilene_cost_network.node[8].core_layer 	interests[8] 	10027
scalar abilene_cost_network.node[8].core_layer 	data[8] 	9216
scalar abilene_cost_network.node[8].content_store 	p_hit[8] 	0.08078188889997
scalar abilene_cost_network.node[8].content_store 	hits[8] 	810
scalar abilene_cost_network.node[8].content_store 	misses[8] 	9217
scalar abilene_cost_network.node[8].content_store 	decision_yes[8] 	80
scalar abilene_cost_network.node[8].content_store 	decision_no[8] 	9136
scalar abilene_cost_network.node[8].content_store 	decision_ratio[8] 	0.0086805555555556
scalar abilene_cost_network.node[9].core_layer 	interests[9] 	38408
scalar abilene_cost_network.node[9].core_layer 	data[9] 	26192
scalar abilene_cost_network.node[9].content_store 	p_hit[9] 	0.31680899812539
scalar abilene_cost_network.node[9].content_store 	hits[9] 	12168
scalar abilene_cost_network.node[9].content_store 	misses[9] 	26240
scalar abilene_cost_network.node[9].content_store 	decision_yes[9] 	271
scalar abilene_cost_network.node[9].content_store 	decision_no[9] 	25921
scalar abilene_cost_network.node[9].content_store 	decision_ratio[9] 	0.010346670739157
scalar abilene_cost_network.node[10].core_layer 	interests[10] 	33628
scalar abilene_cost_network.node[10].core_layer 	data[10] 	29660
scalar abilene_cost_network.node[10].content_store 	p_hit[10] 	0.11799690733912
scalar abilene_cost_network.node[10].content_store 	hits[10] 	3968
scalar abilene_cost_network.node[10].content_store 	misses[10] 	29660
scalar abilene_cost_network.node[10].content_store 	decision_yes[10] 	318
scalar abilene_cost_network.node[10].content_store 	decision_no[10] 	29342
scalar abilene_cost_network.node[10].content_store 	decision_ratio[10] 	0.010721510451787
scalar abilene_cost_network.node[11].core_layer 	interests[11] 	20343
scalar abilene_cost_network.node[11].core_layer 	repo_load[11] 	20343
scalar abilene_cost_network.node[11].core_layer 	data[11] 	0
scalar abilene_cost_network.node[11].content_store 	p_hit[11] 	0
scalar abilene_cost_network.node[11].content_store 	hits[11] 	0
scalar abilene_cost_network.node[11].content_store 	misses[11] 	20343
scalar abilene_cost_network.node[11].content_store 	decision_yes[11] 	0
scalar abilene_cost_network.node[11].content_store 	decision_no[11] 	20343
scalar abilene_cost_network.node[11].content_store 	decision_ratio[11] 	0
scalar abilene_cost_network.node[12].core_layer 	interests[12] 	18575
scalar abilene_cost_network.node[12].core_layer 	repo_load[12] 	18575
scalar abilene_cost_network.node[12].core_layer 	data[12] 	0
scalar abilene_cost_network.node[12].content_store 	p_hit[12] 	0
scalar abilene_cost_network.node[12].content_store 	hits[12] 	0
scalar abilene_cost_network.node[12].content_store 	misses[12] 	18575
scalar abilene_cost_network.node[12].content_store 	decision_yes[12] 	0
scalar abilene_cost_network.node[12].content_store 	decision_no[12] 	18575
scalar abilene_cost_network.node[12].content_store 	decision_ratio[12] 	0
scalar abilene_cost_network.node[13].core_layer 	interests[13] 	20156
scalar abilene_cost_network.node[13].core_layer 	repo_load[13] 	20156
scalar abilene_cost_network.node[13].core_layer 	data[13] 	0
scalar abilene_cost_network.node[13].content_store 	p_hit[13] 	0
scalar abilene_cost_network.node[13].content_store 	hits[13] 	0
scalar abilene_cost_network.node[13].content_store 	misses[13] 	20156
scalar abilene_cost_network.node[13].content_store 	decision_yes[13] 	0
scalar abilene_cost_network.node[13].content_store 	decision_no[13] 	20156
scalar abilene_cost_network.node[13].content_store 	decision_ratio[13] 	0
scalar abilene_cost_network.client[0] 	hdistance[0] 	2.4652442661172
scalar abilene_cost_network.client[0] 	downloads[0] 	36886
scalar abilene_cost_network.client[0] 	avg_time[0] 	0.010424926592
scalar abilene_cost_network.client[0] 	interests_sent[0] 	36960
scalar abilene_cost_network.client[5] 	hdistance[5] 	3.4798048620953
scalar abilene_cost_network.client[5] 	downloads[5] 	36692
scalar abilene_cost_network.client[5] 	avg_time[5] 	0.012998967512
scalar abilene_cost_network.client[5] 	interests_sent[5] 	36756
scalar abilene_cost_network.client[9] 	hdistance[9] 	2.275863938203
scalar abilene_cost_network.client[9] 	downloads[9] 	36895
scalar abilene_cost_network.client[9] 	avg_time[9] 	0.00930186226
scalar abilene_cost_network.client[9] 	interests_sent[9] 	36943
