version 2
run General-1-20140623-17:32:11-5478
attr D fix0.01
attr F nrr
attr R lru
attr a 1
attr configname General
attr csize 1e3
attr ctlg 1e5
attr datetime 20140623-17:32:11
attr experiment General
attr inifile omnetpp.ini
attr iterationvars "$net=abilene_cost, $rep=1, $priceratiovalue=10, $weights=0.333_0.333_0.334, $lambda=100, $a=1, $ctlg=1e5, $F=nrr, $ttl=1000, $D=fix0.01, $xi=1, $R=lru, $csize=1e3, $pricebits=0, $mytime=1800"
attr iterationvars2 "$net=abilene_cost, $rep=1, $priceratiovalue=10, $weights=0.333_0.333_0.334, $lambda=100, $a=1, $ctlg=1e5, $F=nrr, $ttl=1000, $D=fix0.01, $xi=1, $R=lru, $csize=1e3, $pricebits=0, $mytime=1800, $repetition=0"
attr lambda 100
attr measurement "$net=abilene_cost, $rep=1, $priceratiovalue=10, $weights=0.333_0.333_0.334, $lambda=100, $a=1, $ctlg=1e5, $F=nrr, $ttl=1000, $D=fix0.01, $xi=1, $R=lru, $csize=1e3, $pricebits=0, $mytime=1800"
attr mytime 1800
attr net abilene_cost
attr network networks.${net=abilene_cost}_network
attr pricebits 0
attr priceratiovalue 10
attr processid 5478
attr rep 1
attr repetition 0
attr replication #0
attr resultdir results
attr runnumber 1
attr seedset 1
attr ttl 1000
attr weights 0.333_0.333_0.334
attr xi 1

scalar . 	a 	1
scalar . 	csize 	1e3
scalar . 	ctlg 	1e5
scalar . 	lambda 	100
scalar . 	mytime 	1800
scalar . 	pricebits 	0
scalar . 	priceratiovalue 	10
scalar . 	rep 	1
scalar . 	ttl 	1000
scalar . 	xi 	1
scalar abilene_cost_network.content_distribution 	repo-0 	11
scalar abilene_cost_network.content_distribution 	repo-1 	12
scalar abilene_cost_network.content_distribution 	repo-2 	13
scalar abilene_cost_network.content_distribution 	client-0 	5
scalar abilene_cost_network.content_distribution 	client-1 	0
scalar abilene_cost_network.content_distribution 	client-2 	9
scalar abilene_cost_network.content_distribution 	repo-0_card 	33396
scalar abilene_cost_network.content_distribution 	repo-1_card 	33039
scalar abilene_cost_network.content_distribution 	repo-2_card 	33565
scalar abilene_cost_network.statistics 	repo_popularity[0] 	0.28686251265602
scalar abilene_cost_network.statistics 	repo_popularity[1] 	0.2886063426465
scalar abilene_cost_network.statistics 	repo_popularity[2] 	0.42453114469748
scalar abilene_cost_network.statistics 	stabilization_time 	485.2
scalar abilene_cost_network.node[1].face$o[4].channel 	price[1] 	0
scalar abilene_cost_network.node[1].face$o[4].channel 	represented_price[1] 	0
scalar abilene_cost_network.node[7].face$o[4].channel 	price[7] 	0
scalar abilene_cost_network.node[7].face$o[4].channel 	represented_price[7] 	0
scalar abilene_cost_network.node[10].face$o[4].channel 	price[10] 	0
scalar abilene_cost_network.node[10].face$o[4].channel 	represented_price[10] 	0
scalar abilene_cost_network.node[11].face$o[1].channel 	price[11] 	0
scalar abilene_cost_network.node[11].face$o[1].channel 	represented_price[11] 	0
scalar abilene_cost_network.node[12].face$o[1].channel 	price[12] 	1
scalar abilene_cost_network.node[12].face$o[1].channel 	represented_price[12] 	1
scalar abilene_cost_network.node[13].face$o[1].channel 	price[13] 	10
scalar abilene_cost_network.node[13].face$o[1].channel 	represented_price[13] 	10
scalar abilene_cost_network.statistics 	p_hit 	0.18766587215434
scalar abilene_cost_network.statistics 	interests 	110939.57142857
scalar abilene_cost_network.statistics 	data 	72405
scalar abilene_cost_network.statistics 	hdistance 	2.3383614089991
scalar abilene_cost_network.statistics 	avg_time 	0
scalar abilene_cost_network.statistics 	downloads 	539484
scalar abilene_cost_network.statistics 	total_cost 	926094
scalar abilene_cost_network.statistics 	total_replicas 	100000
scalar abilene_cost_network.statistics 	inner_hit 	0.54028293702872
scalar abilene_cost_network.statistics 	interests_sent 	539484
scalar abilene_cost_network.node[0].core_layer 	interests[0] 	183751
scalar abilene_cost_network.node[0].core_layer 	data[0] 	110169
scalar abilene_cost_network.node[0].core_layer 	repo_int[0] 	248010
scalar abilene_cost_network.node[0].content_store 	p_hit[0] 	0.4004440792159
scalar abilene_cost_network.node[0].content_store 	hits[0] 	73582
scalar abilene_cost_network.node[0].content_store 	misses[0] 	110169
scalar abilene_cost_network.node[0].content_store 	decision_yes[0] 	1108
scalar abilene_cost_network.node[0].content_store 	decision_no[0] 	109061
scalar abilene_cost_network.node[0].content_store 	decision_ratio[0] 	0.010057275640153
scalar abilene_cost_network.node[1].core_layer 	interests[1] 	161487
scalar abilene_cost_network.node[1].core_layer 	data[1] 	152225
scalar abilene_cost_network.node[1].content_store 	p_hit[1] 	0.057354461969075
scalar abilene_cost_network.node[1].content_store 	hits[1] 	9262
scalar abilene_cost_network.node[1].content_store 	misses[1] 	152225
scalar abilene_cost_network.node[1].content_store 	decision_yes[1] 	1432
scalar abilene_cost_network.node[1].content_store 	decision_no[1] 	150793
scalar abilene_cost_network.node[1].content_store 	decision_ratio[1] 	0.0094071276071605
scalar abilene_cost_network.node[2].core_layer 	interests[2] 	105703
scalar abilene_cost_network.node[2].core_layer 	data[2] 	96005
scalar abilene_cost_network.node[2].content_store 	p_hit[2] 	0.091747632517526
scalar abilene_cost_network.node[2].content_store 	hits[2] 	9698
scalar abilene_cost_network.node[2].content_store 	misses[2] 	96005
scalar abilene_cost_network.node[2].content_store 	decision_yes[2] 	955
scalar abilene_cost_network.node[2].content_store 	decision_no[2] 	95050
scalar abilene_cost_network.node[2].content_store 	decision_ratio[2] 	0.009947398572991
scalar abilene_cost_network.node[3].core_layer 	interests[3] 	98708
scalar abilene_cost_network.node[3].core_layer 	data[3] 	92016
scalar abilene_cost_network.node[3].content_store 	p_hit[3] 	0.067795923329416
scalar abilene_cost_network.node[3].content_store 	hits[3] 	6692
scalar abilene_cost_network.node[3].content_store 	misses[3] 	92016
scalar abilene_cost_network.node[3].content_store 	decision_yes[3] 	976
scalar abilene_cost_network.node[3].content_store 	decision_no[3] 	91040
scalar abilene_cost_network.node[3].content_store 	decision_ratio[3] 	0.010606850982438
scalar abilene_cost_network.node[4].core_layer 	interests[4] 	72681
scalar abilene_cost_network.node[4].core_layer 	data[4] 	66016
scalar abilene_cost_network.node[4].content_store 	p_hit[4] 	0.091702095458235
scalar abilene_cost_network.node[4].content_store 	hits[4] 	6665
scalar abilene_cost_network.node[4].content_store 	misses[4] 	66016
scalar abilene_cost_network.node[4].content_store 	decision_yes[4] 	670
scalar abilene_cost_network.node[4].content_store 	decision_no[4] 	65346
scalar abilene_cost_network.node[4].content_store 	decision_ratio[4] 	0.0101490547746
scalar abilene_cost_network.node[5].core_layer 	interests[5] 	180264
scalar abilene_cost_network.node[5].core_layer 	data[5] 	110633
scalar abilene_cost_network.node[5].content_store 	p_hit[5] 	0.38627235609994
scalar abilene_cost_network.node[5].content_store 	hits[5] 	69631
scalar abilene_cost_network.node[5].content_store 	misses[5] 	110633
scalar abilene_cost_network.node[5].content_store 	decision_yes[5] 	1125
scalar abilene_cost_network.node[5].content_store 	decision_no[5] 	109508
scalar abilene_cost_network.node[5].content_store 	decision_ratio[5] 	0.010168756157747
scalar abilene_cost_network.node[6].core_layer 	interests[6] 	41760
scalar abilene_cost_network.node[6].core_layer 	data[6] 	33226
scalar abilene_cost_network.node[6].content_store 	p_hit[6] 	0.20435823754789
scalar abilene_cost_network.node[6].content_store 	hits[6] 	8534
scalar abilene_cost_network.node[6].content_store 	misses[6] 	33226
scalar abilene_cost_network.node[6].content_store 	decision_yes[6] 	327
scalar abilene_cost_network.node[6].content_store 	decision_no[6] 	32899
scalar abilene_cost_network.node[6].content_store 	decision_ratio[6] 	0.0098416902425811
scalar abilene_cost_network.node[7].core_layer 	interests[7] 	90212
scalar abilene_cost_network.node[7].core_layer 	data[7] 	82847
scalar abilene_cost_network.node[7].content_store 	p_hit[7] 	0.08164102336718
scalar abilene_cost_network.node[7].content_store 	hits[7] 	7365
scalar abilene_cost_network.node[7].content_store 	misses[7] 	82847
scalar abilene_cost_network.node[7].content_store 	decision_yes[7] 	814
scalar abilene_cost_network.node[7].content_store 	decision_no[7] 	82033
scalar abilene_cost_network.node[7].content_store 	decision_ratio[7] 	0.0098253406882567
scalar abilene_cost_network.node[8].core_layer 	interests[8] 	47019
scalar abilene_cost_network.node[8].core_layer 	data[8] 	35926
scalar abilene_cost_network.node[8].content_store 	p_hit[8] 	0.23592590229482
scalar abilene_cost_network.node[8].content_store 	hits[8] 	11093
scalar abilene_cost_network.node[8].content_store 	misses[8] 	35926
scalar abilene_cost_network.node[8].content_store 	decision_yes[8] 	339
scalar abilene_cost_network.node[8].content_store 	decision_no[8] 	35587
scalar abilene_cost_network.node[8].content_store 	decision_ratio[8] 	0.0094360630184268
scalar abilene_cost_network.node[9].core_layer 	interests[9] 	184091
scalar abilene_cost_network.node[9].core_layer 	data[9] 	110190
scalar abilene_cost_network.node[9].content_store 	p_hit[9] 	0.40143733262354
scalar abilene_cost_network.node[9].content_store 	hits[9] 	73901
scalar abilene_cost_network.node[9].content_store 	misses[9] 	110190
scalar abilene_cost_network.node[9].content_store 	decision_yes[9] 	1123
scalar abilene_cost_network.node[9].content_store 	decision_no[9] 	109067
scalar abilene_cost_network.node[9].content_store 	decision_ratio[9] 	0.010191487430801
scalar abilene_cost_network.node[10].core_layer 	interests[10] 	139468
scalar abilene_cost_network.node[10].core_layer 	data[10] 	124417
scalar abilene_cost_network.node[10].content_store 	p_hit[10] 	0.10791722832478
scalar abilene_cost_network.node[10].content_store 	hits[10] 	15051
scalar abilene_cost_network.node[10].content_store 	misses[10] 	124417
scalar abilene_cost_network.node[10].content_store 	decision_yes[10] 	1206
scalar abilene_cost_network.node[10].content_store 	decision_no[10] 	123211
scalar abilene_cost_network.node[10].content_store 	decision_ratio[10] 	0.0096932091273701
scalar abilene_cost_network.node[11].core_layer 	interests[11] 	86781
scalar abilene_cost_network.node[11].core_layer 	repo_load[11] 	86781
scalar abilene_cost_network.node[11].core_layer 	data[11] 	0
scalar abilene_cost_network.node[11].content_store 	p_hit[11] 	0
scalar abilene_cost_network.node[11].content_store 	hits[11] 	0
scalar abilene_cost_network.node[11].content_store 	misses[11] 	86781
scalar abilene_cost_network.node[11].content_store 	decision_yes[11] 	0
scalar abilene_cost_network.node[11].content_store 	decision_no[11] 	86781
scalar abilene_cost_network.node[11].content_store 	decision_ratio[11] 	0
scalar abilene_cost_network.node[12].core_layer 	interests[12] 	76244
scalar abilene_cost_network.node[12].core_layer 	repo_load[12] 	76244
scalar abilene_cost_network.node[12].core_layer 	data[12] 	0
scalar abilene_cost_network.node[12].content_store 	p_hit[12] 	0
scalar abilene_cost_network.node[12].content_store 	hits[12] 	0
scalar abilene_cost_network.node[12].content_store 	misses[12] 	76244
scalar abilene_cost_network.node[12].content_store 	decision_yes[12] 	0
scalar abilene_cost_network.node[12].content_store 	decision_no[12] 	76244
scalar abilene_cost_network.node[12].content_store 	decision_ratio[12] 	0
scalar abilene_cost_network.node[13].core_layer 	interests[13] 	84985
scalar abilene_cost_network.node[13].core_layer 	repo_load[13] 	84985
scalar abilene_cost_network.node[13].core_layer 	data[13] 	0
scalar abilene_cost_network.node[13].content_store 	p_hit[13] 	0
scalar abilene_cost_network.node[13].content_store 	hits[13] 	0
scalar abilene_cost_network.node[13].content_store 	misses[13] 	84985
scalar abilene_cost_network.node[13].content_store 	decision_yes[13] 	0
scalar abilene_cost_network.node[13].content_store 	decision_no[13] 	84985
scalar abilene_cost_network.node[13].content_store 	decision_ratio[13] 	0
scalar abilene_cost_network.client[0] 	hdistance[0] 	2.1182492038304
scalar abilene_cost_network.client[0] 	downloads[0] 	180238
scalar abilene_cost_network.client[0] 	avg_time[0] 	0
scalar abilene_cost_network.client[0] 	interests_sent[0] 	180238
scalar abilene_cost_network.client[5] 	hdistance[5] 	2.9546924846882
scalar abilene_cost_network.client[5] 	downloads[5] 	179926
scalar abilene_cost_network.client[5] 	avg_time[5] 	0
scalar abilene_cost_network.client[5] 	interests_sent[5] 	179926
scalar abilene_cost_network.client[9] 	hdistance[9] 	1.9421425384787
scalar abilene_cost_network.client[9] 	downloads[9] 	179320
scalar abilene_cost_network.client[9] 	avg_time[9] 	0
scalar abilene_cost_network.client[9] 	interests_sent[9] 	179320
