version 2
run General-5-20140618-15:35:42-16761
attr D fix0.0001
attr F spr
attr R lru
attr a 1
attr configname General
attr csize 1e3
attr ctlg 1e5
attr datetime 20140618-15:35:42
attr experiment General
attr inifile omnetpp.ini
attr iterationvars "$net=abilene_cost, $rep=1, $priceratiovalue=10, $weights=0.333_0.333_0.334, $lambda=100, $a=1, $ctlg=1e5, $F=spr, $ttl=1000, $D=fix0.0001, $xi=1, $R=lru, $csize=1e3, $pricebits=0, $mytime=1800"
attr iterationvars2 "$net=abilene_cost, $rep=1, $priceratiovalue=10, $weights=0.333_0.333_0.334, $lambda=100, $a=1, $ctlg=1e5, $F=spr, $ttl=1000, $D=fix0.0001, $xi=1, $R=lru, $csize=1e3, $pricebits=0, $mytime=1800, $repetition=0"
attr lambda 100
attr measurement "$net=abilene_cost, $rep=1, $priceratiovalue=10, $weights=0.333_0.333_0.334, $lambda=100, $a=1, $ctlg=1e5, $F=spr, $ttl=1000, $D=fix0.0001, $xi=1, $R=lru, $csize=1e3, $pricebits=0, $mytime=1800"
attr mytime 1800
attr net abilene_cost
attr network networks.${net=abilene_cost}_network
attr pricebits 0
attr priceratiovalue 10
attr processid 16761
attr rep 1
attr repetition 0
attr replication #0
attr resultdir results
attr runnumber 5
attr seedset 1
attr ttl 1000
attr weights 0.333_0.333_0.334
attr xi 1

scalar . 	a 	1
scalar . 	csize 	1e3
scalar . 	ctlg 	1e5
scalar . 	lambda 	100
scalar . 	mytime 	1800
scalar . 	pricebits 	0
scalar . 	priceratiovalue 	10
scalar . 	rep 	1
scalar . 	ttl 	1000
scalar . 	xi 	1
scalar abilene_cost_network.content_distribution 	repo-0 	11
scalar abilene_cost_network.content_distribution 	repo-1 	12
scalar abilene_cost_network.content_distribution 	repo-2 	13
scalar abilene_cost_network.content_distribution 	client-0 	3
scalar abilene_cost_network.content_distribution 	client-1 	7
scalar abilene_cost_network.content_distribution 	client-2 	10
scalar abilene_cost_network.content_distribution 	repo-0_card 	33396
scalar abilene_cost_network.content_distribution 	repo-1_card 	33039
scalar abilene_cost_network.content_distribution 	repo-2_card 	33565
scalar abilene_cost_network.statistics 	repo_popularity[0] 	0.28686251265602
scalar abilene_cost_network.statistics 	repo_popularity[1] 	0.2886063426465
scalar abilene_cost_network.statistics 	repo_popularity[2] 	0.42453114469748
scalar abilene_cost_network.node[0].face$o[3].channel 	price[0] 	0
scalar abilene_cost_network.node[0].face$o[3].channel 	represented_price[0] 	0
scalar abilene_cost_network.node[5].face$o[3].channel 	price[5] 	0
scalar abilene_cost_network.node[5].face$o[3].channel 	represented_price[5] 	0
scalar abilene_cost_network.node[9].face$o[3].channel 	price[9] 	0
scalar abilene_cost_network.node[9].face$o[3].channel 	represented_price[9] 	0
scalar abilene_cost_network.node[11].face$o[1].channel 	price[11] 	0
scalar abilene_cost_network.node[11].face$o[1].channel 	represented_price[11] 	0
scalar abilene_cost_network.node[12].face$o[1].channel 	price[12] 	1
scalar abilene_cost_network.node[12].face$o[1].channel 	represented_price[12] 	1
scalar abilene_cost_network.node[13].face$o[1].channel 	price[13] 	10
scalar abilene_cost_network.node[13].face$o[1].channel 	represented_price[13] 	10
scalar abilene_cost_network.statistics 	p_hit 	0.11846202705835
scalar abilene_cost_network.statistics 	inner_hit 	inf
scalar abilene_cost_network.statistics 	interests 	1567844.7857143
scalar abilene_cost_network.statistics 	data 	1101248.2142857
scalar abilene_cost_network.statistics 	hdistance 	2.9620790618185
scalar abilene_cost_network.statistics 	avg_time 	0
scalar abilene_cost_network.statistics 	downloads 	6532349
scalar abilene_cost_network.statistics 	total_cost 	14454392
scalar abilene_cost_network.statistics 	total_replicas 	100000
scalar abilene_cost_network.statistics 	interests_sent 	6532350
scalar abilene_cost_network.node[0].core_layer 	interests[0] 	1457304
scalar abilene_cost_network.node[0].core_layer 	data[0] 	1381290
scalar abilene_cost_network.node[0].core_layer 	repo_int[0] 	3932129
scalar abilene_cost_network.node[0].content_store 	p_hit[0] 	0.052160702228224
scalar abilene_cost_network.node[0].content_store 	hits[0] 	76014
scalar abilene_cost_network.node[0].content_store 	misses[0] 	1381290
scalar abilene_cost_network.node[0].content_store 	decision_yes[0] 	113
scalar abilene_cost_network.node[0].content_store 	decision_no[0] 	1381177
scalar abilene_cost_network.node[0].content_store 	decision_ratio[0] 	8.1807585662678e-05
scalar abilene_cost_network.node[1].core_layer 	interests[1] 	1023287
scalar abilene_cost_network.node[1].core_layer 	data[1] 	980997
scalar abilene_cost_network.node[1].content_store 	p_hit[1] 	0.041327604083703
scalar abilene_cost_network.node[1].content_store 	hits[1] 	42290
scalar abilene_cost_network.node[1].content_store 	misses[1] 	980997
scalar abilene_cost_network.node[1].content_store 	decision_yes[1] 	94
scalar abilene_cost_network.node[1].content_store 	decision_no[1] 	980903
scalar abilene_cost_network.node[1].content_store 	decision_ratio[1] 	9.5820884263662e-05
scalar abilene_cost_network.node[2].core_layer 	interests[2] 	1050739
scalar abilene_cost_network.node[2].core_layer 	data[2] 	974914
scalar abilene_cost_network.node[2].content_store 	p_hit[2] 	0.072163496358277
scalar abilene_cost_network.node[2].content_store 	hits[2] 	75825
scalar abilene_cost_network.node[2].content_store 	misses[2] 	974914
scalar abilene_cost_network.node[2].content_store 	decision_yes[2] 	91
scalar abilene_cost_network.node[2].content_store 	decision_no[2] 	974823
scalar abilene_cost_network.node[2].content_store 	decision_ratio[2] 	9.3341566538177e-05
scalar abilene_cost_network.node[3].core_layer 	interests[3] 	2639783
scalar abilene_cost_network.node[3].core_layer 	data[3] 	2092447
scalar abilene_cost_network.node[3].content_store 	p_hit[3] 	0.20734090643057
scalar abilene_cost_network.node[3].content_store 	hits[3] 	547335
scalar abilene_cost_network.node[3].content_store 	misses[3] 	2092448
scalar abilene_cost_network.node[3].content_store 	decision_yes[3] 	202
scalar abilene_cost_network.node[3].content_store 	decision_no[3] 	2092245
scalar abilene_cost_network.node[3].content_store 	decision_ratio[3] 	9.6537690082473e-05
scalar abilene_cost_network.node[4].core_layer 	interests[4] 	944035
scalar abilene_cost_network.node[4].core_layer 	data[4] 	876299
scalar abilene_cost_network.node[4].content_store 	p_hit[4] 	0.071750517724449
scalar abilene_cost_network.node[4].content_store 	hits[4] 	67735
scalar abilene_cost_network.node[4].content_store 	misses[4] 	876300
scalar abilene_cost_network.node[4].content_store 	decision_yes[4] 	100
scalar abilene_cost_network.node[4].content_store 	decision_no[4] 	876199
scalar abilene_cost_network.node[4].content_store 	decision_ratio[4] 	0.00011411630048648
scalar abilene_cost_network.node[5].core_layer 	interests[5] 	1348592
scalar abilene_cost_network.node[5].core_layer 	data[5] 	1228222
scalar abilene_cost_network.node[5].content_store 	p_hit[5] 	0.089256053721214
scalar abilene_cost_network.node[5].content_store 	hits[5] 	120370
scalar abilene_cost_network.node[5].content_store 	misses[5] 	1228222
scalar abilene_cost_network.node[5].content_store 	decision_yes[5] 	137
scalar abilene_cost_network.node[5].content_store 	decision_no[5] 	1228085
scalar abilene_cost_network.node[5].content_store 	decision_ratio[5] 	0.00011154335291177
scalar abilene_cost_network.node[6].core_layer 	interests[6] 	513468
scalar abilene_cost_network.node[6].core_layer 	data[6] 	472292
scalar abilene_cost_network.node[6].content_store 	p_hit[6] 	0.080191949644379
scalar abilene_cost_network.node[6].content_store 	hits[6] 	41176
scalar abilene_cost_network.node[6].content_store 	misses[6] 	472292
scalar abilene_cost_network.node[6].content_store 	decision_yes[6] 	43
scalar abilene_cost_network.node[6].content_store 	decision_no[6] 	472249
scalar abilene_cost_network.node[6].content_store 	decision_ratio[6] 	9.1045370237057e-05
scalar abilene_cost_network.node[7].core_layer 	interests[7] 	2763556
scalar abilene_cost_network.node[7].core_layer 	data[7] 	2137347
scalar abilene_cost_network.node[7].content_store 	p_hit[7] 	0.22659537204963
scalar abilene_cost_network.node[7].content_store 	hits[7] 	626209
scalar abilene_cost_network.node[7].content_store 	misses[7] 	2137347
scalar abilene_cost_network.node[7].content_store 	decision_yes[7] 	208
scalar abilene_cost_network.node[7].content_store 	decision_no[7] 	2137139
scalar abilene_cost_network.node[7].content_store 	decision_ratio[7] 	9.7316907362258e-05
scalar abilene_cost_network.node[8].core_layer 	interests[8] 	1623879
scalar abilene_cost_network.node[8].core_layer 	data[8] 	1414139
scalar abilene_cost_network.node[8].content_store 	p_hit[8] 	0.12915986967009
scalar abilene_cost_network.node[8].content_store 	hits[8] 	209740
scalar abilene_cost_network.node[8].content_store 	misses[8] 	1414139
scalar abilene_cost_network.node[8].content_store 	decision_yes[8] 	148
scalar abilene_cost_network.node[8].content_store 	decision_no[8] 	1413991
scalar abilene_cost_network.node[8].content_store 	decision_ratio[8] 	0.00010465732152214
scalar abilene_cost_network.node[9].core_layer 	interests[9] 	2011069
scalar abilene_cost_network.node[9].core_layer 	data[9] 	1787638
scalar abilene_cost_network.node[9].content_store 	p_hit[9] 	0.11110061365373
scalar abilene_cost_network.node[9].content_store 	hits[9] 	223431
scalar abilene_cost_network.node[9].content_store 	misses[9] 	1787638
scalar abilene_cost_network.node[9].content_store 	decision_yes[9] 	183
scalar abilene_cost_network.node[9].content_store 	decision_no[9] 	1787455
scalar abilene_cost_network.node[9].content_store 	decision_ratio[9] 	0.00010236971914896
scalar abilene_cost_network.node[10].core_layer 	interests[10] 	2641986
scalar abilene_cost_network.node[10].core_layer 	data[10] 	2071890
scalar abilene_cost_network.node[10].content_store 	p_hit[10] 	0.21578312678417
scalar abilene_cost_network.node[10].content_store 	hits[10] 	570096
scalar abilene_cost_network.node[10].content_store 	misses[10] 	2071890
scalar abilene_cost_network.node[10].content_store 	decision_yes[10] 	187
scalar abilene_cost_network.node[10].content_store 	decision_no[10] 	2071703
scalar abilene_cost_network.node[10].content_store 	decision_ratio[10] 	9.0255756821067e-05
scalar abilene_cost_network.node[11].core_layer 	interests[11] 	1381290
scalar abilene_cost_network.node[11].core_layer 	repo_load[11] 	1381290
scalar abilene_cost_network.node[11].core_layer 	data[11] 	0
scalar abilene_cost_network.node[11].content_store 	p_hit[11] 	0
scalar abilene_cost_network.node[11].content_store 	hits[11] 	0
scalar abilene_cost_network.node[11].content_store 	misses[11] 	1381290
scalar abilene_cost_network.node[11].content_store 	decision_yes[11] 	0
scalar abilene_cost_network.node[11].content_store 	decision_no[11] 	1381290
scalar abilene_cost_network.node[11].content_store 	decision_ratio[11] 	0
scalar abilene_cost_network.node[12].core_layer 	interests[12] 	1228222
scalar abilene_cost_network.node[12].core_layer 	repo_load[12] 	1228222
scalar abilene_cost_network.node[12].core_layer 	data[12] 	0
scalar abilene_cost_network.node[12].content_store 	p_hit[12] 	0
scalar abilene_cost_network.node[12].content_store 	hits[12] 	0
scalar abilene_cost_network.node[12].content_store 	misses[12] 	1228222
scalar abilene_cost_network.node[12].content_store 	decision_yes[12] 	0
scalar abilene_cost_network.node[12].content_store 	decision_no[12] 	1228222
scalar abilene_cost_network.node[12].content_store 	decision_ratio[12] 	0
scalar abilene_cost_network.node[13].core_layer 	interests[13] 	1322617
scalar abilene_cost_network.node[13].core_layer 	repo_load[13] 	1322617
scalar abilene_cost_network.node[13].core_layer 	data[13] 	0
scalar abilene_cost_network.node[13].content_store 	p_hit[13] 	0
scalar abilene_cost_network.node[13].content_store 	hits[13] 	0
scalar abilene_cost_network.node[13].content_store 	misses[13] 	1322617
scalar abilene_cost_network.node[13].content_store 	decision_yes[13] 	0
scalar abilene_cost_network.node[13].content_store 	decision_no[13] 	1322617
scalar abilene_cost_network.node[13].content_store 	decision_ratio[13] 	0
scalar abilene_cost_network.client[3] 	hdistance[3] 	3.0768847536097
scalar abilene_cost_network.client[3] 	downloads[3] 	2179834
scalar abilene_cost_network.client[3] 	avg_time[3] 	0
scalar abilene_cost_network.client[3] 	interests_sent[3] 	2179835
scalar abilene_cost_network.client[7] 	hdistance[7] 	3.005594907035
scalar abilene_cost_network.client[7] 	downloads[7] 	2175550
scalar abilene_cost_network.client[7] 	avg_time[7] 	0
scalar abilene_cost_network.client[7] 	interests_sent[7] 	2175550
scalar abilene_cost_network.client[10] 	hdistance[10] 	2.803757524811
scalar abilene_cost_network.client[10] 	downloads[10] 	2176965
scalar abilene_cost_network.client[10] 	avg_time[10] 	0
scalar abilene_cost_network.client[10] 	interests_sent[10] 	2176965
