version 2
run General-1552-20140502-04:03:07-10473
attr D costprob0.01
attr F nrr
attr R lru
attr a 0.8
attr configname General
attr csize 1e3
attr ctlg 1e5
attr datetime 20140502-04:03:07
attr experiment General
attr inifile omnetpp.ini
attr iterationvars "$net=three_caches_scenario_3_links, $rep=3, $priceratiovalue=5, $weights=0_0.5_0.5, $a=0.8, $ctlg=1e5, $F=nrr, $ttl=1000, $D=costprob0.01, $xi=1, $R=lru, $csize=1e3"
attr iterationvars2 "$net=three_caches_scenario_3_links, $rep=3, $priceratiovalue=5, $weights=0_0.5_0.5, $a=0.8, $ctlg=1e5, $F=nrr, $ttl=1000, $D=costprob0.01, $xi=1, $R=lru, $csize=1e3, $repetition=0"
attr measurement "$net=three_caches_scenario_3_links, $rep=3, $priceratiovalue=5, $weights=0_0.5_0.5, $a=0.8, $ctlg=1e5, $F=nrr, $ttl=1000, $D=costprob0.01, $xi=1, $R=lru, $csize=1e3"
attr net three_caches_scenario_3_links
attr network networks.${net=three_caches_scenario_3_links}_network
attr priceratiovalue 5
attr processid 10473
attr rep 3
attr repetition 0
attr replication #0
attr resultdir results
attr runnumber 1552
attr seedset 3
attr ttl 1000
attr weights 0_0.5_0.5
attr xi 1

scalar . 	a 	0.8
scalar . 	csize 	1e3
scalar . 	ctlg 	1e5
scalar . 	priceratiovalue 	5
scalar . 	rep 	3
scalar . 	ttl 	1000
scalar . 	xi 	1
scalar three_caches_scenario_3_links_network.content_distribution 	repo-0 	4
scalar three_caches_scenario_3_links_network.content_distribution 	repo-1 	5
scalar three_caches_scenario_3_links_network.content_distribution 	repo-2 	6
scalar three_caches_scenario_3_links_network.content_distribution 	client-0 	0
scalar three_caches_scenario_3_links_network.content_distribution 	repo-0_card 	0
scalar three_caches_scenario_3_links_network.content_distribution 	repo-1_card 	49794
scalar three_caches_scenario_3_links_network.content_distribution 	repo-2_card 	50206
scalar three_caches_scenario_3_links_network.statistics 	p_hit 	0.10072474517366
scalar three_caches_scenario_3_links_network.statistics 	interests 	67412.857142857
scalar three_caches_scenario_3_links_network.statistics 	data 	41733.142857143
scalar three_caches_scenario_3_links_network.statistics 	hdistance 	2.3607238620812
scalar three_caches_scenario_3_links_network.statistics 	avg_time 	0
scalar three_caches_scenario_3_links_network.statistics 	downloads 	179758
scalar three_caches_scenario_3_links_network.statistics 	total_cost 	386395
scalar three_caches_scenario_3_links_network.statistics 	total_replicas 	100000
scalar three_caches_scenario_3_links_network.statistics 	interests_sent 	179758
scalar three_caches_scenario_3_links_network.node[0].core_layer 	interests[0] 	179758
scalar three_caches_scenario_3_links_network.node[0].core_layer 	data[0] 	159905
scalar three_caches_scenario_3_links_network.node[0].core_layer 	repo_int[0] 	132227
scalar three_caches_scenario_3_links_network.node[0].content_store 	p_hit[0] 	0.11044292882653
scalar three_caches_scenario_3_links_network.node[0].content_store 	hits[0] 	19853
scalar three_caches_scenario_3_links_network.node[0].content_store 	misses[0] 	159905
scalar three_caches_scenario_3_links_network.node[0].content_store 	decision_yes[0] 	1309
scalar three_caches_scenario_3_links_network.node[0].content_store 	decision_no[0] 	158596
scalar three_caches_scenario_3_links_network.node[1].core_layer 	interests[1] 	0
scalar three_caches_scenario_3_links_network.node[1].core_layer 	data[1] 	0
scalar three_caches_scenario_3_links_network.node[1].content_store 	p_hit[1] 	-nan
scalar three_caches_scenario_3_links_network.node[1].content_store 	hits[1] 	0
scalar three_caches_scenario_3_links_network.node[1].content_store 	misses[1] 	0
scalar three_caches_scenario_3_links_network.node[1].content_store 	decision_yes[1] 	0
scalar three_caches_scenario_3_links_network.node[1].content_store 	decision_no[1] 	0
scalar three_caches_scenario_3_links_network.node[2].core_layer 	interests[2] 	85475
scalar three_caches_scenario_3_links_network.node[2].core_layer 	data[2] 	68685
scalar three_caches_scenario_3_links_network.node[2].content_store 	p_hit[2] 	0.19643170517695
scalar three_caches_scenario_3_links_network.node[2].content_store 	hits[2] 	16790
scalar three_caches_scenario_3_links_network.node[2].content_store 	misses[2] 	68685
scalar three_caches_scenario_3_links_network.node[2].content_store 	decision_yes[2] 	204
scalar three_caches_scenario_3_links_network.node[2].content_store 	decision_no[2] 	68481
scalar three_caches_scenario_3_links_network.node[3].core_layer 	interests[3] 	74430
scalar three_caches_scenario_3_links_network.node[3].core_layer 	data[3] 	63542
scalar three_caches_scenario_3_links_network.node[3].content_store 	p_hit[3] 	0.14628510009405
scalar three_caches_scenario_3_links_network.node[3].content_store 	hits[3] 	10888
scalar three_caches_scenario_3_links_network.node[3].content_store 	misses[3] 	63542
scalar three_caches_scenario_3_links_network.node[3].content_store 	decision_yes[3] 	1035
scalar three_caches_scenario_3_links_network.node[3].content_store 	decision_no[3] 	62507
scalar three_caches_scenario_3_links_network.node[4].core_layer 	interests[4] 	0
scalar three_caches_scenario_3_links_network.node[4].core_layer 	data[4] 	0
scalar three_caches_scenario_3_links_network.node[4].content_store 	p_hit[4] 	-nan
scalar three_caches_scenario_3_links_network.node[4].content_store 	hits[4] 	0
scalar three_caches_scenario_3_links_network.node[4].content_store 	misses[4] 	0
scalar three_caches_scenario_3_links_network.node[4].content_store 	decision_yes[4] 	0
scalar three_caches_scenario_3_links_network.node[4].content_store 	decision_no[4] 	0
scalar three_caches_scenario_3_links_network.node[5].core_layer 	interests[5] 	68685
scalar three_caches_scenario_3_links_network.node[5].core_layer 	repo_load[5] 	68685
scalar three_caches_scenario_3_links_network.node[5].core_layer 	data[5] 	0
scalar three_caches_scenario_3_links_network.node[5].content_store 	p_hit[5] 	0
scalar three_caches_scenario_3_links_network.node[5].content_store 	hits[5] 	0
scalar three_caches_scenario_3_links_network.node[5].content_store 	misses[5] 	68685
scalar three_caches_scenario_3_links_network.node[5].content_store 	decision_yes[5] 	0
scalar three_caches_scenario_3_links_network.node[5].content_store 	decision_no[5] 	68685
scalar three_caches_scenario_3_links_network.node[6].core_layer 	interests[6] 	63542
scalar three_caches_scenario_3_links_network.node[6].core_layer 	repo_load[6] 	63542
scalar three_caches_scenario_3_links_network.node[6].core_layer 	data[6] 	0
scalar three_caches_scenario_3_links_network.node[6].content_store 	p_hit[6] 	0
scalar three_caches_scenario_3_links_network.node[6].content_store 	hits[6] 	0
scalar three_caches_scenario_3_links_network.node[6].content_store 	misses[6] 	63542
scalar three_caches_scenario_3_links_network.node[6].content_store 	decision_yes[6] 	0
scalar three_caches_scenario_3_links_network.node[6].content_store 	decision_no[6] 	63542
scalar three_caches_scenario_3_links_network.client[0] 	hdistance[0] 	2.3607238620812
scalar three_caches_scenario_3_links_network.client[0] 	downloads[0] 	179758
scalar three_caches_scenario_3_links_network.client[0] 	avg_time[0] 	0
scalar three_caches_scenario_3_links_network.client[0] 	interests_sent[0] 	179758
