version 2
run General-976-20140502-02:56:48-9879
attr D costprob0.01
attr F nrr
attr R lru
attr a 0.8
attr configname General
attr csize 1e3
attr ctlg 1e5
attr datetime 20140502-02:56:48
attr experiment General
attr inifile omnetpp.ini
attr iterationvars "$net=three_caches_scenario_3_links, $rep=2, $priceratiovalue=5, $weights=0_0.5_0.5, $a=0.8, $ctlg=1e5, $F=nrr, $ttl=1000, $D=costprob0.01, $xi=1, $R=lru, $csize=1e3"
attr iterationvars2 "$net=three_caches_scenario_3_links, $rep=2, $priceratiovalue=5, $weights=0_0.5_0.5, $a=0.8, $ctlg=1e5, $F=nrr, $ttl=1000, $D=costprob0.01, $xi=1, $R=lru, $csize=1e3, $repetition=0"
attr measurement "$net=three_caches_scenario_3_links, $rep=2, $priceratiovalue=5, $weights=0_0.5_0.5, $a=0.8, $ctlg=1e5, $F=nrr, $ttl=1000, $D=costprob0.01, $xi=1, $R=lru, $csize=1e3"
attr net three_caches_scenario_3_links
attr network networks.${net=three_caches_scenario_3_links}_network
attr priceratiovalue 5
attr processid 9879
attr rep 2
attr repetition 0
attr replication #0
attr resultdir results
attr runnumber 976
attr seedset 2
attr ttl 1000
attr weights 0_0.5_0.5
attr xi 1

scalar . 	a 	0.8
scalar . 	csize 	1e3
scalar . 	ctlg 	1e5
scalar . 	priceratiovalue 	5
scalar . 	rep 	2
scalar . 	ttl 	1000
scalar . 	xi 	1
scalar three_caches_scenario_3_links_network.content_distribution 	repo-0 	4
scalar three_caches_scenario_3_links_network.content_distribution 	repo-1 	5
scalar three_caches_scenario_3_links_network.content_distribution 	repo-2 	6
scalar three_caches_scenario_3_links_network.content_distribution 	client-0 	0
scalar three_caches_scenario_3_links_network.content_distribution 	repo-0_card 	0
scalar three_caches_scenario_3_links_network.content_distribution 	repo-1_card 	50028
scalar three_caches_scenario_3_links_network.content_distribution 	repo-2_card 	49972
scalar three_caches_scenario_3_links_network.statistics 	p_hit 	0.1006479062697
scalar three_caches_scenario_3_links_network.statistics 	interests 	67756.714285714
scalar three_caches_scenario_3_links_network.statistics 	data 	42079.428571429
scalar three_caches_scenario_3_links_network.statistics 	hdistance 	2.3731925381521
scalar three_caches_scenario_3_links_network.statistics 	avg_time 	0
scalar three_caches_scenario_3_links_network.statistics 	downloads 	179741
scalar three_caches_scenario_3_links_network.statistics 	total_cost 	384536
scalar three_caches_scenario_3_links_network.statistics 	total_replicas 	100000
scalar three_caches_scenario_3_links_network.statistics 	interests_sent 	179741
scalar three_caches_scenario_3_links_network.node[0].core_layer 	interests[0] 	179741
scalar three_caches_scenario_3_links_network.node[0].core_layer 	data[0] 	162552
scalar three_caches_scenario_3_links_network.node[0].core_layer 	repo_int[0] 	132004
scalar three_caches_scenario_3_links_network.node[0].content_store 	p_hit[0] 	0.095632048336217
scalar three_caches_scenario_3_links_network.node[0].content_store 	hits[0] 	17189
scalar three_caches_scenario_3_links_network.node[0].content_store 	misses[0] 	162552
scalar three_caches_scenario_3_links_network.node[0].content_store 	decision_yes[0] 	1284
scalar three_caches_scenario_3_links_network.node[0].content_store 	decision_no[0] 	161268
scalar three_caches_scenario_3_links_network.node[1].core_layer 	interests[1] 	0
scalar three_caches_scenario_3_links_network.node[1].core_layer 	data[1] 	0
scalar three_caches_scenario_3_links_network.node[1].content_store 	p_hit[1] 	-nan
scalar three_caches_scenario_3_links_network.node[1].content_store 	hits[1] 	0
scalar three_caches_scenario_3_links_network.node[1].content_store 	misses[1] 	0
scalar three_caches_scenario_3_links_network.node[1].content_store 	decision_yes[1] 	0
scalar three_caches_scenario_3_links_network.node[1].content_store 	decision_no[1] 	0
scalar three_caches_scenario_3_links_network.node[2].core_layer 	interests[2] 	86569
scalar three_caches_scenario_3_links_network.node[2].core_layer 	data[2] 	68871
scalar three_caches_scenario_3_links_network.node[2].content_store 	p_hit[2] 	0.20443807829593
scalar three_caches_scenario_3_links_network.node[2].content_store 	hits[2] 	17698
scalar three_caches_scenario_3_links_network.node[2].content_store 	misses[2] 	68871
scalar three_caches_scenario_3_links_network.node[2].content_store 	decision_yes[2] 	237
scalar three_caches_scenario_3_links_network.node[2].content_store 	decision_no[2] 	68634
scalar three_caches_scenario_3_links_network.node[3].core_layer 	interests[3] 	75983
scalar three_caches_scenario_3_links_network.node[3].core_layer 	data[3] 	63133
scalar three_caches_scenario_3_links_network.node[3].content_store 	p_hit[3] 	0.16911677612097
scalar three_caches_scenario_3_links_network.node[3].content_store 	hits[3] 	12850
scalar three_caches_scenario_3_links_network.node[3].content_store 	misses[3] 	63133
scalar three_caches_scenario_3_links_network.node[3].content_store 	decision_yes[3] 	1083
scalar three_caches_scenario_3_links_network.node[3].content_store 	decision_no[3] 	62050
scalar three_caches_scenario_3_links_network.node[4].core_layer 	interests[4] 	0
scalar three_caches_scenario_3_links_network.node[4].core_layer 	data[4] 	0
scalar three_caches_scenario_3_links_network.node[4].content_store 	p_hit[4] 	-nan
scalar three_caches_scenario_3_links_network.node[4].content_store 	hits[4] 	0
scalar three_caches_scenario_3_links_network.node[4].content_store 	misses[4] 	0
scalar three_caches_scenario_3_links_network.node[4].content_store 	decision_yes[4] 	0
scalar three_caches_scenario_3_links_network.node[4].content_store 	decision_no[4] 	0
scalar three_caches_scenario_3_links_network.node[5].core_layer 	interests[5] 	68871
scalar three_caches_scenario_3_links_network.node[5].core_layer 	repo_load[5] 	68871
scalar three_caches_scenario_3_links_network.node[5].core_layer 	data[5] 	0
scalar three_caches_scenario_3_links_network.node[5].content_store 	p_hit[5] 	0
scalar three_caches_scenario_3_links_network.node[5].content_store 	hits[5] 	0
scalar three_caches_scenario_3_links_network.node[5].content_store 	misses[5] 	68871
scalar three_caches_scenario_3_links_network.node[5].content_store 	decision_yes[5] 	0
scalar three_caches_scenario_3_links_network.node[5].content_store 	decision_no[5] 	68871
scalar three_caches_scenario_3_links_network.node[6].core_layer 	interests[6] 	63133
scalar three_caches_scenario_3_links_network.node[6].core_layer 	repo_load[6] 	63133
scalar three_caches_scenario_3_links_network.node[6].core_layer 	data[6] 	0
scalar three_caches_scenario_3_links_network.node[6].content_store 	p_hit[6] 	0
scalar three_caches_scenario_3_links_network.node[6].content_store 	hits[6] 	0
scalar three_caches_scenario_3_links_network.node[6].content_store 	misses[6] 	63133
scalar three_caches_scenario_3_links_network.node[6].content_store 	decision_yes[6] 	0
scalar three_caches_scenario_3_links_network.node[6].content_store 	decision_no[6] 	63133
scalar three_caches_scenario_3_links_network.client[0] 	hdistance[0] 	2.3731925381521
scalar three_caches_scenario_3_links_network.client[0] 	downloads[0] 	179741
scalar three_caches_scenario_3_links_network.client[0] 	avg_time[0] 	0
scalar three_caches_scenario_3_links_network.client[0] 	interests_sent[0] 	179741
