version 2
run General-2164-20140422-20:24:59-6315
attr D costprob0.1
attr F nrr
attr R lru
attr a 0
attr configname General
attr csize 10
attr ctlg 10^3
attr datetime 20140422-20:24:59
attr experiment General
attr inifile omnetpp.ini
attr iterationvars "$net=simple_scenario, $rep=19, $priceratiovalue=1, $a=0, $ctlg=10^3, $F=nrr, $ttl=1000, $D=costprob0.1, $R=lru, $csize=10"
attr iterationvars2 "$net=simple_scenario, $rep=19, $priceratiovalue=1, $a=0, $ctlg=10^3, $F=nrr, $ttl=1000, $D=costprob0.1, $R=lru, $csize=10, $repetition=0"
attr measurement "$net=simple_scenario, $rep=19, $priceratiovalue=1, $a=0, $ctlg=10^3, $F=nrr, $ttl=1000, $D=costprob0.1, $R=lru, $csize=10"
attr net simple_scenario
attr network networks.${net=simple_scenario}_network
attr priceratiovalue 1
attr processid 6315
attr rep 19
attr repetition 0
attr replication #0
attr resultdir results
attr runnumber 2164
attr seedset 19
attr ttl 1000

scalar . 	a 	0
scalar . 	csize 	10
scalar . 	priceratiovalue 	1
scalar . 	rep 	19
scalar . 	ttl 	1000
scalar simple_scenario_network.content_distribution 	repo-0 	3
scalar simple_scenario_network.content_distribution 	repo-1 	4
scalar simple_scenario_network.content_distribution 	client-0 	0
scalar simple_scenario_network.content_distribution 	repo-0_card 	476
scalar simple_scenario_network.content_distribution 	repo-1_card 	524
scalar simple_scenario_network.statistics 	p_hit 	0.010146396396396
scalar simple_scenario_network.statistics 	interests 	106560
scalar simple_scenario_network.statistics 	data 	70554
scalar simple_scenario_network.statistics 	hdistance 	2.9294784202632
scalar simple_scenario_network.statistics 	avg_time 	0.001999762032
scalar simple_scenario_network.statistics 	downloads 	180030
scalar simple_scenario_network.statistics 	total_cost 	87312
scalar simple_scenario_network.node[0].core_layer 	interests[0] 	180030
scalar simple_scenario_network.node[0].core_layer 	data[0] 	178146
scalar simple_scenario_network.node[0].core_layer 	repo_int[0] 	174624
scalar simple_scenario_network.node[0].content_store 	p_hit[0] 	0.010464922512915
scalar simple_scenario_network.node[0].content_store 	hits[0] 	1884
scalar simple_scenario_network.node[0].content_store 	misses[0] 	178146
scalar simple_scenario_network.node[1].core_layer 	interests[1] 	84642
scalar simple_scenario_network.node[1].core_layer 	data[1] 	82880
scalar simple_scenario_network.node[1].content_store 	p_hit[1] 	0.02081708844309
scalar simple_scenario_network.node[1].content_store 	hits[1] 	1762
scalar simple_scenario_network.node[1].content_store 	misses[1] 	82880
scalar simple_scenario_network.node[2].core_layer 	interests[2] 	93504
scalar simple_scenario_network.node[2].core_layer 	data[2] 	91744
scalar simple_scenario_network.node[2].content_store 	p_hit[2] 	0.018822724161533
scalar simple_scenario_network.node[2].content_store 	hits[2] 	1760
scalar simple_scenario_network.node[2].content_store 	misses[2] 	91744
scalar simple_scenario_network.node[3].core_layer 	interests[3] 	82880
scalar simple_scenario_network.node[3].core_layer 	repo_load[3] 	82880
scalar simple_scenario_network.node[3].core_layer 	data[3] 	0
scalar simple_scenario_network.node[3].content_store 	p_hit[3] 	0
scalar simple_scenario_network.node[3].content_store 	hits[3] 	0
scalar simple_scenario_network.node[3].content_store 	misses[3] 	82880
scalar simple_scenario_network.node[4].core_layer 	interests[4] 	91744
scalar simple_scenario_network.node[4].core_layer 	repo_load[4] 	91744
scalar simple_scenario_network.node[4].core_layer 	data[4] 	0
scalar simple_scenario_network.node[4].content_store 	p_hit[4] 	0
scalar simple_scenario_network.node[4].content_store 	hits[4] 	0
scalar simple_scenario_network.node[4].content_store 	misses[4] 	91744
scalar simple_scenario_network.client[0] 	hdistance[0] 	2.9294784202632
scalar simple_scenario_network.client[0] 	downloads[0] 	180030
scalar simple_scenario_network.client[0] 	avg_time[0] 	0.001999762032
