version 2
run General-2044-20140422-20:22:21-14966
attr D costprob0.1
attr F nrr
attr R lru
attr a 0
attr configname General
attr csize 10
attr ctlg 10^3
attr datetime 20140422-20:22:21
attr experiment General
attr inifile omnetpp.ini
attr iterationvars "$net=simple_scenario, $rep=18, $priceratiovalue=1, $a=0, $ctlg=10^3, $F=nrr, $ttl=1000, $D=costprob0.1, $R=lru, $csize=10"
attr iterationvars2 "$net=simple_scenario, $rep=18, $priceratiovalue=1, $a=0, $ctlg=10^3, $F=nrr, $ttl=1000, $D=costprob0.1, $R=lru, $csize=10, $repetition=0"
attr measurement "$net=simple_scenario, $rep=18, $priceratiovalue=1, $a=0, $ctlg=10^3, $F=nrr, $ttl=1000, $D=costprob0.1, $R=lru, $csize=10"
attr net simple_scenario
attr network networks.${net=simple_scenario}_network
attr priceratiovalue 1
attr processid 14966
attr rep 18
attr repetition 0
attr replication #0
attr resultdir results
attr runnumber 2044
attr seedset 18
attr ttl 1000

scalar . 	a 	0
scalar . 	csize 	10
scalar . 	priceratiovalue 	1
scalar . 	rep 	18
scalar . 	ttl 	1000
scalar simple_scenario_network.content_distribution 	repo-0 	3
scalar simple_scenario_network.content_distribution 	repo-1 	4
scalar simple_scenario_network.content_distribution 	client-0 	0
scalar simple_scenario_network.content_distribution 	repo-0_card 	499
scalar simple_scenario_network.content_distribution 	repo-1_card 	501
scalar simple_scenario_network.statistics 	p_hit 	0.010010251462341
scalar simple_scenario_network.statistics 	interests 	106131.2
scalar simple_scenario_network.statistics 	data 	70283.6
scalar simple_scenario_network.statistics 	hdistance 	2.9309856168893
scalar simple_scenario_network.statistics 	avg_time 	0.001999743653
scalar simple_scenario_network.statistics 	downloads 	179238
scalar simple_scenario_network.statistics 	total_cost 	86963
scalar simple_scenario_network.node[0].core_layer 	interests[0] 	179238
scalar simple_scenario_network.node[0].core_layer 	data[0] 	177492
scalar simple_scenario_network.node[0].core_layer 	repo_int[0] 	173926
scalar simple_scenario_network.node[0].content_store 	p_hit[0] 	0.0097412379071402
scalar simple_scenario_network.node[0].content_store 	hits[0] 	1746
scalar simple_scenario_network.node[0].content_store 	misses[0] 	177492
scalar simple_scenario_network.node[1].core_layer 	interests[1] 	88427
scalar simple_scenario_network.node[1].core_layer 	data[1] 	86656
scalar simple_scenario_network.node[1].content_store 	p_hit[1] 	0.020027819557375
scalar simple_scenario_network.node[1].content_store 	hits[1] 	1771
scalar simple_scenario_network.node[1].content_store 	misses[1] 	86656
scalar simple_scenario_network.node[2].core_layer 	interests[2] 	89065
scalar simple_scenario_network.node[2].core_layer 	data[2] 	87270
scalar simple_scenario_network.node[2].content_store 	p_hit[2] 	0.020153820243642
scalar simple_scenario_network.node[2].content_store 	hits[2] 	1795
scalar simple_scenario_network.node[2].content_store 	misses[2] 	87270
scalar simple_scenario_network.node[3].core_layer 	interests[3] 	86656
scalar simple_scenario_network.node[3].core_layer 	repo_load[3] 	86656
scalar simple_scenario_network.node[3].core_layer 	data[3] 	0
scalar simple_scenario_network.node[3].content_store 	p_hit[3] 	0
scalar simple_scenario_network.node[3].content_store 	hits[3] 	0
scalar simple_scenario_network.node[3].content_store 	misses[3] 	86656
scalar simple_scenario_network.node[4].core_layer 	interests[4] 	87270
scalar simple_scenario_network.node[4].core_layer 	repo_load[4] 	87270
scalar simple_scenario_network.node[4].core_layer 	data[4] 	0
scalar simple_scenario_network.node[4].content_store 	p_hit[4] 	0
scalar simple_scenario_network.node[4].content_store 	hits[4] 	0
scalar simple_scenario_network.node[4].content_store 	misses[4] 	87270
scalar simple_scenario_network.client[0] 	hdistance[0] 	2.9309856168893
scalar simple_scenario_network.client[0] 	downloads[0] 	179238
scalar simple_scenario_network.client[0] 	avg_time[0] 	0.001999743653
