version 2
run General-1508-20140502-03:55:23-10427
attr D costprob0.001
attr F nrr
attr R lru
attr a 1.2
attr configname General
attr csize 1e3
attr ctlg 1e5
attr datetime 20140502-03:55:23
attr experiment General
attr inifile omnetpp.ini
attr iterationvars "$net=three_caches_scenario_3_links, $rep=3, $priceratiovalue=5, $weights=0.2_0.4_0.4, $a=1.2, $ctlg=1e5, $F=nrr, $ttl=1000, $D=costprob0.001, $xi=1, $R=lru, $csize=1e3"
attr iterationvars2 "$net=three_caches_scenario_3_links, $rep=3, $priceratiovalue=5, $weights=0.2_0.4_0.4, $a=1.2, $ctlg=1e5, $F=nrr, $ttl=1000, $D=costprob0.001, $xi=1, $R=lru, $csize=1e3, $repetition=0"
attr measurement "$net=three_caches_scenario_3_links, $rep=3, $priceratiovalue=5, $weights=0.2_0.4_0.4, $a=1.2, $ctlg=1e5, $F=nrr, $ttl=1000, $D=costprob0.001, $xi=1, $R=lru, $csize=1e3"
attr net three_caches_scenario_3_links
attr network networks.${net=three_caches_scenario_3_links}_network
attr priceratiovalue 5
attr processid 10427
attr rep 3
attr repetition 0
attr replication #0
attr resultdir results
attr runnumber 1508
attr seedset 3
attr ttl 1000
attr weights 0.2_0.4_0.4
attr xi 1

scalar . 	a 	1.2
scalar . 	csize 	1e3
scalar . 	ctlg 	1e5
scalar . 	priceratiovalue 	5
scalar . 	rep 	3
scalar . 	ttl 	1000
scalar . 	xi 	1
scalar three_caches_scenario_3_links_network.content_distribution 	repo-0 	4
scalar three_caches_scenario_3_links_network.content_distribution 	repo-1 	5
scalar three_caches_scenario_3_links_network.content_distribution 	repo-2 	6
scalar three_caches_scenario_3_links_network.content_distribution 	client-0 	0
scalar three_caches_scenario_3_links_network.content_distribution 	repo-0_card 	20144
scalar three_caches_scenario_3_links_network.content_distribution 	repo-1_card 	39732
scalar three_caches_scenario_3_links_network.content_distribution 	repo-2_card 	40124
scalar three_caches_scenario_3_links_network.statistics 	p_hit 	0.25918136560384
scalar three_caches_scenario_3_links_network.statistics 	interests 	54952.142857143
scalar three_caches_scenario_3_links_network.statistics 	data 	29382.428571429
scalar three_caches_scenario_3_links_network.statistics 	hdistance 	1.3015285940957
scalar three_caches_scenario_3_links_network.statistics 	avg_time 	0
scalar three_caches_scenario_3_links_network.statistics 	downloads 	178988
scalar three_caches_scenario_3_links_network.statistics 	total_cost 	71245
scalar three_caches_scenario_3_links_network.statistics 	total_replicas 	100000
scalar three_caches_scenario_3_links_network.statistics 	interests_sent 	178988
scalar three_caches_scenario_3_links_network.node[0].core_layer 	interests[0] 	178988
scalar three_caches_scenario_3_links_network.node[0].core_layer 	data[0] 	126387
scalar three_caches_scenario_3_links_network.node[0].core_layer 	repo_int[0] 	79290
scalar three_caches_scenario_3_links_network.node[0].content_store 	p_hit[0] 	0.2938800366505
scalar three_caches_scenario_3_links_network.node[0].content_store 	hits[0] 	52601
scalar three_caches_scenario_3_links_network.node[0].content_store 	misses[0] 	126387
scalar three_caches_scenario_3_links_network.node[0].content_store 	decision_yes[0] 	32
scalar three_caches_scenario_3_links_network.node[0].content_store 	decision_no[0] 	126355
scalar three_caches_scenario_3_links_network.node[1].core_layer 	interests[1] 	52009
scalar three_caches_scenario_3_links_network.node[1].core_layer 	data[1] 	52009
scalar three_caches_scenario_3_links_network.node[1].content_store 	p_hit[1] 	0
scalar three_caches_scenario_3_links_network.node[1].content_store 	hits[1] 	0
scalar three_caches_scenario_3_links_network.node[1].content_store 	misses[1] 	52009
scalar three_caches_scenario_3_links_network.node[1].content_store 	decision_yes[1] 	0
scalar three_caches_scenario_3_links_network.node[1].content_store 	decision_no[1] 	52009
scalar three_caches_scenario_3_links_network.node[2].core_layer 	interests[2] 	54051
scalar three_caches_scenario_3_links_network.node[2].core_layer 	data[2] 	16290
scalar three_caches_scenario_3_links_network.node[2].content_store 	p_hit[2] 	0.69861797191541
scalar three_caches_scenario_3_links_network.node[2].content_store 	hits[2] 	37761
scalar three_caches_scenario_3_links_network.node[2].content_store 	misses[2] 	16290
scalar three_caches_scenario_3_links_network.node[2].content_store 	decision_yes[2] 	8
scalar three_caches_scenario_3_links_network.node[2].content_store 	decision_no[2] 	16282
scalar three_caches_scenario_3_links_network.node[3].core_layer 	interests[3] 	20327
scalar three_caches_scenario_3_links_network.node[3].core_layer 	data[3] 	10991
scalar three_caches_scenario_3_links_network.node[3].content_store 	p_hit[3] 	0.45929059871107
scalar three_caches_scenario_3_links_network.node[3].content_store 	hits[3] 	9336
scalar three_caches_scenario_3_links_network.node[3].content_store 	misses[3] 	10991
scalar three_caches_scenario_3_links_network.node[3].content_store 	decision_yes[3] 	27
scalar three_caches_scenario_3_links_network.node[3].content_store 	decision_no[3] 	10964
scalar three_caches_scenario_3_links_network.node[4].core_layer 	interests[4] 	52009
scalar three_caches_scenario_3_links_network.node[4].core_layer 	repo_load[4] 	52009
scalar three_caches_scenario_3_links_network.node[4].core_layer 	data[4] 	0
scalar three_caches_scenario_3_links_network.node[4].content_store 	p_hit[4] 	0
scalar three_caches_scenario_3_links_network.node[4].content_store 	hits[4] 	0
scalar three_caches_scenario_3_links_network.node[4].content_store 	misses[4] 	52009
scalar three_caches_scenario_3_links_network.node[4].content_store 	decision_yes[4] 	0
scalar three_caches_scenario_3_links_network.node[4].content_store 	decision_no[4] 	52009
scalar three_caches_scenario_3_links_network.node[5].core_layer 	interests[5] 	16290
scalar three_caches_scenario_3_links_network.node[5].core_layer 	repo_load[5] 	16290
scalar three_caches_scenario_3_links_network.node[5].core_layer 	data[5] 	0
scalar three_caches_scenario_3_links_network.node[5].content_store 	p_hit[5] 	0
scalar three_caches_scenario_3_links_network.node[5].content_store 	hits[5] 	0
scalar three_caches_scenario_3_links_network.node[5].content_store 	misses[5] 	16290
scalar three_caches_scenario_3_links_network.node[5].content_store 	decision_yes[5] 	0
scalar three_caches_scenario_3_links_network.node[5].content_store 	decision_no[5] 	16290
scalar three_caches_scenario_3_links_network.node[6].core_layer 	interests[6] 	10991
scalar three_caches_scenario_3_links_network.node[6].core_layer 	repo_load[6] 	10991
scalar three_caches_scenario_3_links_network.node[6].core_layer 	data[6] 	0
scalar three_caches_scenario_3_links_network.node[6].content_store 	p_hit[6] 	0
scalar three_caches_scenario_3_links_network.node[6].content_store 	hits[6] 	0
scalar three_caches_scenario_3_links_network.node[6].content_store 	misses[6] 	10991
scalar three_caches_scenario_3_links_network.node[6].content_store 	decision_yes[6] 	0
scalar three_caches_scenario_3_links_network.node[6].content_store 	decision_no[6] 	10991
scalar three_caches_scenario_3_links_network.client[0] 	hdistance[0] 	1.3015285940957
scalar three_caches_scenario_3_links_network.client[0] 	downloads[0] 	178988
scalar three_caches_scenario_3_links_network.client[0] 	avg_time[0] 	0
scalar three_caches_scenario_3_links_network.client[0] 	interests_sent[0] 	178988
