version 2
run General-0-20140626-15:19:34-16293
attr D costprobprodplain0.01
attr F nrr
attr R lru
attr a 1
attr configname General
attr csize 1e3
attr ctlg 1e5
attr datetime 20140626-15:19:34
attr experiment General
attr inifile omnetpp.ini
attr iterationvars "$net=geant_cost, $rep=1, $priceratiovalue=10, $weights=0.333_0.333_0.334, $lambda=100, $a=1, $ctlg=1e5, $F=nrr, $ttl=1000, $D=costprobprodplain0.01, $xi=1, $R=lru, $csize=1e3, $pricebits=0, $mytime=1800"
attr iterationvars2 "$net=geant_cost, $rep=1, $priceratiovalue=10, $weights=0.333_0.333_0.334, $lambda=100, $a=1, $ctlg=1e5, $F=nrr, $ttl=1000, $D=costprobprodplain0.01, $xi=1, $R=lru, $csize=1e3, $pricebits=0, $mytime=1800, $repetition=0"
attr lambda 100
attr measurement "$net=geant_cost, $rep=1, $priceratiovalue=10, $weights=0.333_0.333_0.334, $lambda=100, $a=1, $ctlg=1e5, $F=nrr, $ttl=1000, $D=costprobprodplain0.01, $xi=1, $R=lru, $csize=1e3, $pricebits=0, $mytime=1800"
attr mytime 1800
attr net geant_cost
attr network networks.${net=geant_cost}_network
attr pricebits 0
attr priceratiovalue 10
attr processid 16293
attr rep 1
attr repetition 0
attr replication #0
attr resultdir results
attr runnumber 0
attr seedset 1
attr ttl 1000
attr weights 0.333_0.333_0.334
attr xi 1

scalar . 	a 	1
scalar . 	csize 	1e3
scalar . 	ctlg 	1e5
scalar . 	lambda 	100
scalar . 	mytime 	1800
scalar . 	pricebits 	0
scalar . 	priceratiovalue 	10
scalar . 	rep 	1
scalar . 	ttl 	1000
scalar . 	xi 	1
scalar geant_cost_network.content_distribution 	repo-0 	22
scalar geant_cost_network.content_distribution 	repo-1 	23
scalar geant_cost_network.content_distribution 	repo-2 	24
scalar geant_cost_network.content_distribution 	client-0 	20
scalar geant_cost_network.content_distribution 	client-1 	10
scalar geant_cost_network.content_distribution 	client-2 	12
scalar geant_cost_network.content_distribution 	client-3 	9
scalar geant_cost_network.content_distribution 	client-4 	5
scalar geant_cost_network.content_distribution 	repo-0_card 	33396
scalar geant_cost_network.content_distribution 	repo-1_card 	33039
scalar geant_cost_network.content_distribution 	repo-2_card 	33565
scalar geant_cost_network.statistics 	repo_popularity[0] 	0.28686251265602
scalar geant_cost_network.statistics 	repo_popularity[1] 	0.2886063426465
scalar geant_cost_network.statistics 	repo_popularity[2] 	0.42453114469748
scalar geant_cost_network.node[7].face$o[4].channel 	price[7] 	0
scalar geant_cost_network.node[7].face$o[4].channel 	represented_price[7] 	0
scalar geant_cost_network.node[8].face$o[3].channel 	price[8] 	0
scalar geant_cost_network.node[8].face$o[3].channel 	represented_price[8] 	0
scalar geant_cost_network.node[21].face$o[5].channel 	price[21] 	0
scalar geant_cost_network.node[21].face$o[5].channel 	represented_price[21] 	0
scalar geant_cost_network.node[22].face$o[1].channel 	price[22] 	0
scalar geant_cost_network.node[22].face$o[1].channel 	represented_price[22] 	0
scalar geant_cost_network.node[23].face$o[1].channel 	price[23] 	1
scalar geant_cost_network.node[23].face$o[1].channel 	represented_price[23] 	1
scalar geant_cost_network.node[24].face$o[1].channel 	price[24] 	10
scalar geant_cost_network.node[24].face$o[1].channel 	represented_price[24] 	10
scalar geant_cost_network.statistics 	p_hit 	0.10019419648435
scalar geant_cost_network.statistics 	interests 	2172047.56
scalar geant_cost_network.statistics 	data 	1636309.72
scalar geant_cost_network.statistics 	hdistance 	3.6830127696677
scalar geant_cost_network.statistics 	avg_time 	0.006836119561
scalar geant_cost_network.statistics 	downloads 	13292827
scalar geant_cost_network.statistics 	total_cost 	21453094
scalar geant_cost_network.statistics 	total_replicas 	100000
scalar geant_cost_network.statistics 	inner_hit 	0.4163184400128
scalar geant_cost_network.statistics 	interests_sent 	13393444
scalar geant_cost_network.node[0].core_layer 	interests[0] 	0
scalar geant_cost_network.node[0].core_layer 	data[0] 	0
scalar geant_cost_network.node[0].core_layer 	repo_int[0] 	7758778
scalar geant_cost_network.node[0].content_store 	p_hit[0] 	-nan
scalar geant_cost_network.node[0].content_store 	hits[0] 	0
scalar geant_cost_network.node[0].content_store 	misses[0] 	0
scalar geant_cost_network.node[0].content_store 	decision_yes[0] 	0
scalar geant_cost_network.node[0].content_store 	decision_no[0] 	0
scalar geant_cost_network.node[0].content_store 	decision_ratio[0] 	0
scalar geant_cost_network.node[0].content_store 	correction_factor[0] 	0.001
scalar geant_cost_network.node[0].content_store 	xi[0] 	1
scalar geant_cost_network.node[1].core_layer 	interests[1] 	0
scalar geant_cost_network.node[1].core_layer 	data[1] 	0
scalar geant_cost_network.node[1].content_store 	p_hit[1] 	-nan
scalar geant_cost_network.node[1].content_store 	hits[1] 	0
scalar geant_cost_network.node[1].content_store 	misses[1] 	0
scalar geant_cost_network.node[1].content_store 	decision_yes[1] 	0
scalar geant_cost_network.node[1].content_store 	decision_no[1] 	0
scalar geant_cost_network.node[1].content_store 	decision_ratio[1] 	0
scalar geant_cost_network.node[1].content_store 	correction_factor[1] 	0.001
scalar geant_cost_network.node[1].content_store 	xi[1] 	1
scalar geant_cost_network.node[2].core_layer 	interests[2] 	0
scalar geant_cost_network.node[2].core_layer 	data[2] 	0
scalar geant_cost_network.node[2].content_store 	p_hit[2] 	-nan
scalar geant_cost_network.node[2].content_store 	hits[2] 	0
scalar geant_cost_network.node[2].content_store 	misses[2] 	0
scalar geant_cost_network.node[2].content_store 	decision_yes[2] 	0
scalar geant_cost_network.node[2].content_store 	decision_no[2] 	0
scalar geant_cost_network.node[2].content_store 	decision_ratio[2] 	0
scalar geant_cost_network.node[2].content_store 	correction_factor[2] 	0.001
scalar geant_cost_network.node[2].content_store 	xi[2] 	1
scalar geant_cost_network.node[3].core_layer 	interests[3] 	4223748
scalar geant_cost_network.node[3].core_layer 	data[3] 	4011366
scalar geant_cost_network.node[3].content_store 	p_hit[3] 	0.049446368485999
scalar geant_cost_network.node[3].content_store 	hits[3] 	208849
scalar geant_cost_network.node[3].content_store 	misses[3] 	4014899
scalar geant_cost_network.node[3].content_store 	decision_yes[3] 	11526
scalar geant_cost_network.node[3].content_store 	decision_no[3] 	3999840
scalar geant_cost_network.node[3].content_store 	decision_ratio[3] 	0.0028733354174114
scalar geant_cost_network.node[3].content_store 	correction_factor[3] 	0.001
scalar geant_cost_network.node[3].content_store 	xi[3] 	1
scalar geant_cost_network.node[4].core_layer 	interests[4] 	5235168
scalar geant_cost_network.node[4].core_layer 	data[4] 	4146903
scalar geant_cost_network.node[4].content_store 	p_hit[4] 	0.20772532992255
scalar geant_cost_network.node[4].content_store 	hits[4] 	1087477
scalar geant_cost_network.node[4].content_store 	misses[4] 	4147691
scalar geant_cost_network.node[4].content_store 	decision_yes[4] 	11737
scalar geant_cost_network.node[4].content_store 	decision_no[4] 	4135166
scalar geant_cost_network.node[4].content_store 	decision_ratio[4] 	0.0028303049287625
scalar geant_cost_network.node[4].content_store 	correction_factor[4] 	0.001
scalar geant_cost_network.node[4].content_store 	xi[4] 	1
scalar geant_cost_network.node[5].core_layer 	interests[5] 	3035226
scalar geant_cost_network.node[5].core_layer 	data[5] 	2608257
scalar geant_cost_network.node[5].content_store 	p_hit[5] 	0.13087756891909
scalar geant_cost_network.node[5].content_store 	hits[5] 	397243
scalar geant_cost_network.node[5].content_store 	misses[5] 	2637983
scalar geant_cost_network.node[5].content_store 	decision_yes[5] 	4122
scalar geant_cost_network.node[5].content_store 	decision_no[5] 	2604135
scalar geant_cost_network.node[5].content_store 	decision_ratio[5] 	0.0015803657384989
scalar geant_cost_network.node[5].content_store 	correction_factor[5] 	0.001
scalar geant_cost_network.node[5].content_store 	xi[5] 	1
scalar geant_cost_network.node[6].core_layer 	interests[6] 	1407146
scalar geant_cost_network.node[6].core_layer 	data[6] 	1308329
scalar geant_cost_network.node[6].content_store 	p_hit[6] 	0.070225122339828
scalar geant_cost_network.node[6].content_store 	hits[6] 	98817
scalar geant_cost_network.node[6].content_store 	misses[6] 	1308329
scalar geant_cost_network.node[6].content_store 	decision_yes[6] 	380
scalar geant_cost_network.node[6].content_store 	decision_no[6] 	1307949
scalar geant_cost_network.node[6].content_store 	decision_ratio[6] 	0.00029044682186209
scalar geant_cost_network.node[6].content_store 	correction_factor[6] 	0.001
scalar geant_cost_network.node[6].content_store 	xi[6] 	1
scalar geant_cost_network.node[7].core_layer 	interests[7] 	5241412
scalar geant_cost_network.node[7].core_layer 	data[7] 	4948801
scalar geant_cost_network.node[7].content_store 	p_hit[7] 	0.055794125705058
scalar geant_cost_network.node[7].content_store 	hits[7] 	292440
scalar geant_cost_network.node[7].content_store 	misses[7] 	4948972
scalar geant_cost_network.node[7].content_store 	decision_yes[7] 	745
scalar geant_cost_network.node[7].content_store 	decision_no[7] 	4948056
scalar geant_cost_network.node[7].content_store 	decision_ratio[7] 	0.00015054151500535
scalar geant_cost_network.node[7].content_store 	correction_factor[7] 	0.001
scalar geant_cost_network.node[7].content_store 	xi[7] 	1
scalar geant_cost_network.node[8].core_layer 	interests[8] 	4282411
scalar geant_cost_network.node[8].core_layer 	data[8] 	3778758
scalar geant_cost_network.node[8].content_store 	p_hit[8] 	0.11760968295663
scalar geant_cost_network.node[8].content_store 	hits[8] 	503653
scalar geant_cost_network.node[8].content_store 	misses[8] 	3778758
scalar geant_cost_network.node[8].content_store 	decision_yes[8] 	2011
scalar geant_cost_network.node[8].content_store 	decision_no[8] 	3776747
scalar geant_cost_network.node[8].content_store 	decision_ratio[8] 	0.00053218544294183
scalar geant_cost_network.node[8].content_store 	correction_factor[8] 	0.001
scalar geant_cost_network.node[8].content_store 	xi[8] 	1
scalar geant_cost_network.node[9].core_layer 	interests[9] 	6264129
scalar geant_cost_network.node[9].core_layer 	data[9] 	5446734
scalar geant_cost_network.node[9].content_store 	p_hit[9] 	0.12197481884553
scalar geant_cost_network.node[9].content_store 	hits[9] 	764066
scalar geant_cost_network.node[9].content_store 	misses[9] 	5500063
scalar geant_cost_network.node[9].content_store 	decision_yes[9] 	8900
scalar geant_cost_network.node[9].content_store 	decision_no[9] 	5437834
scalar geant_cost_network.node[9].content_store 	decision_ratio[9] 	0.0016340067277014
scalar geant_cost_network.node[9].content_store 	correction_factor[9] 	0.001
scalar geant_cost_network.node[9].content_store 	xi[9] 	1
scalar geant_cost_network.node[10].core_layer 	interests[10] 	2826943
scalar geant_cost_network.node[10].core_layer 	data[10] 	2590647
scalar geant_cost_network.node[10].content_store 	p_hit[10] 	0.075156096178805
scalar geant_cost_network.node[10].content_store 	hits[10] 	212462
scalar geant_cost_network.node[10].content_store 	misses[10] 	2614481
scalar geant_cost_network.node[10].content_store 	decision_yes[10] 	4382
scalar geant_cost_network.node[10].content_store 	decision_no[10] 	2586265
scalar geant_cost_network.node[10].content_store 	decision_ratio[10] 	0.0016914693510926
scalar geant_cost_network.node[10].content_store 	correction_factor[10] 	0.001
scalar geant_cost_network.node[10].content_store 	xi[10] 	1
scalar geant_cost_network.node[11].core_layer 	interests[11] 	0
scalar geant_cost_network.node[11].core_layer 	data[11] 	0
scalar geant_cost_network.node[11].content_store 	p_hit[11] 	-nan
scalar geant_cost_network.node[11].content_store 	hits[11] 	0
scalar geant_cost_network.node[11].content_store 	misses[11] 	0
scalar geant_cost_network.node[11].content_store 	decision_yes[11] 	0
scalar geant_cost_network.node[11].content_store 	decision_no[11] 	0
scalar geant_cost_network.node[11].content_store 	decision_ratio[11] 	0
scalar geant_cost_network.node[11].content_store 	correction_factor[11] 	0.001
scalar geant_cost_network.node[11].content_store 	xi[11] 	1
scalar geant_cost_network.node[12].core_layer 	interests[12] 	4971069
scalar geant_cost_network.node[12].core_layer 	data[12] 	4667867
scalar geant_cost_network.node[12].content_store 	p_hit[12] 	0.046828157082511
scalar geant_cost_network.node[12].content_store 	hits[12] 	232786
scalar geant_cost_network.node[12].content_store 	misses[12] 	4738283
scalar geant_cost_network.node[12].content_store 	decision_yes[12] 	11767
scalar geant_cost_network.node[12].content_store 	decision_no[12] 	4656100
scalar geant_cost_network.node[12].content_store 	decision_ratio[12] 	0.0025208516009561
scalar geant_cost_network.node[12].content_store 	correction_factor[12] 	0.001
scalar geant_cost_network.node[12].content_store 	xi[12] 	1
scalar geant_cost_network.node[13].core_layer 	interests[13] 	67136
scalar geant_cost_network.node[13].core_layer 	data[13] 	67136
scalar geant_cost_network.node[13].content_store 	p_hit[13] 	0
scalar geant_cost_network.node[13].content_store 	hits[13] 	0
scalar geant_cost_network.node[13].content_store 	misses[13] 	67136
scalar geant_cost_network.node[13].content_store 	decision_yes[13] 	0
scalar geant_cost_network.node[13].content_store 	decision_no[13] 	67136
scalar geant_cost_network.node[13].content_store 	decision_ratio[13] 	0
scalar geant_cost_network.node[13].content_store 	correction_factor[13] 	0.001
scalar geant_cost_network.node[13].content_store 	xi[13] 	1
scalar geant_cost_network.node[14].core_layer 	interests[14] 	969520
scalar geant_cost_network.node[14].core_layer 	data[14] 	857008
scalar geant_cost_network.node[14].content_store 	p_hit[14] 	0.11604917897516
scalar geant_cost_network.node[14].content_store 	hits[14] 	112512
scalar geant_cost_network.node[14].content_store 	misses[14] 	857008
scalar geant_cost_network.node[14].content_store 	decision_yes[14] 	3858
scalar geant_cost_network.node[14].content_store 	decision_no[14] 	853150
scalar geant_cost_network.node[14].content_store 	decision_ratio[14] 	0.0045017082687676
scalar geant_cost_network.node[14].content_store 	correction_factor[14] 	0.001
scalar geant_cost_network.node[14].content_store 	xi[14] 	1
scalar geant_cost_network.node[15].core_layer 	interests[15] 	0
scalar geant_cost_network.node[15].core_layer 	data[15] 	0
scalar geant_cost_network.node[15].content_store 	p_hit[15] 	-nan
scalar geant_cost_network.node[15].content_store 	hits[15] 	0
scalar geant_cost_network.node[15].content_store 	misses[15] 	0
scalar geant_cost_network.node[15].content_store 	decision_yes[15] 	0
scalar geant_cost_network.node[15].content_store 	decision_no[15] 	0
scalar geant_cost_network.node[15].content_store 	decision_ratio[15] 	0
scalar geant_cost_network.node[15].content_store 	correction_factor[15] 	0.001
scalar geant_cost_network.node[15].content_store 	xi[15] 	1
scalar geant_cost_network.node[16].core_layer 	interests[16] 	0
scalar geant_cost_network.node[16].core_layer 	data[16] 	0
scalar geant_cost_network.node[16].content_store 	p_hit[16] 	-nan
scalar geant_cost_network.node[16].content_store 	hits[16] 	0
scalar geant_cost_network.node[16].content_store 	misses[16] 	0
scalar geant_cost_network.node[16].content_store 	decision_yes[16] 	0
scalar geant_cost_network.node[16].content_store 	decision_no[16] 	0
scalar geant_cost_network.node[16].content_store 	decision_ratio[16] 	0
scalar geant_cost_network.node[16].content_store 	correction_factor[16] 	0.001
scalar geant_cost_network.node[16].content_store 	xi[16] 	1
scalar geant_cost_network.node[17].core_layer 	interests[17] 	0
scalar geant_cost_network.node[17].core_layer 	data[17] 	0
scalar geant_cost_network.node[17].content_store 	p_hit[17] 	-nan
scalar geant_cost_network.node[17].content_store 	hits[17] 	0
scalar geant_cost_network.node[17].content_store 	misses[17] 	0
scalar geant_cost_network.node[17].content_store 	decision_yes[17] 	0
scalar geant_cost_network.node[17].content_store 	decision_no[17] 	0
scalar geant_cost_network.node[17].content_store 	decision_ratio[17] 	0
scalar geant_cost_network.node[17].content_store 	correction_factor[17] 	0.001
scalar geant_cost_network.node[17].content_store 	xi[17] 	1
scalar geant_cost_network.node[18].core_layer 	interests[18] 	2064919
scalar geant_cost_network.node[18].core_layer 	data[18] 	1991429
scalar geant_cost_network.node[18].content_store 	p_hit[18] 	0.035528270116164
scalar geant_cost_network.node[18].content_store 	hits[18] 	73363
scalar geant_cost_network.node[18].content_store 	misses[18] 	1991556
scalar geant_cost_network.node[18].content_store 	decision_yes[18] 	414
scalar geant_cost_network.node[18].content_store 	decision_no[18] 	1991015
scalar geant_cost_network.node[18].content_store 	decision_ratio[18] 	0.00020789091652276
scalar geant_cost_network.node[18].content_store 	correction_factor[18] 	0.001
scalar geant_cost_network.node[18].content_store 	xi[18] 	1
scalar geant_cost_network.node[19].core_layer 	interests[19] 	0
scalar geant_cost_network.node[19].core_layer 	data[19] 	0
scalar geant_cost_network.node[19].content_store 	p_hit[19] 	-nan
scalar geant_cost_network.node[19].content_store 	hits[19] 	0
scalar geant_cost_network.node[19].content_store 	misses[19] 	0
scalar geant_cost_network.node[19].content_store 	decision_yes[19] 	0
scalar geant_cost_network.node[19].content_store 	decision_no[19] 	0
scalar geant_cost_network.node[19].content_store 	decision_ratio[19] 	0
scalar geant_cost_network.node[19].content_store 	correction_factor[19] 	0.001
scalar geant_cost_network.node[19].content_store 	xi[19] 	1
scalar geant_cost_network.node[20].core_layer 	interests[20] 	2865349
scalar geant_cost_network.node[20].core_layer 	data[20] 	2536913
scalar geant_cost_network.node[20].content_store 	p_hit[20] 	0.11040749311864
scalar geant_cost_network.node[20].content_store 	hits[20] 	316356
scalar geant_cost_network.node[20].content_store 	misses[20] 	2548993
scalar geant_cost_network.node[20].content_store 	decision_yes[20] 	4603
scalar geant_cost_network.node[20].content_store 	decision_no[20] 	2532310
scalar geant_cost_network.node[20].content_store 	decision_ratio[20] 	0.0018144098753091
scalar geant_cost_network.node[20].content_store 	correction_factor[20] 	0.001
scalar geant_cost_network.node[20].content_store 	xi[20] 	1
scalar geant_cost_network.node[21].core_layer 	interests[21] 	3088235
scalar geant_cost_network.node[21].core_layer 	data[21] 	1947595
scalar geant_cost_network.node[21].content_store 	p_hit[21] 	0.3693501304143
scalar geant_cost_network.node[21].content_store 	hits[21] 	1140640
scalar geant_cost_network.node[21].content_store 	misses[21] 	1947595
scalar geant_cost_network.node[21].content_store 	decision_yes[21] 	19448
scalar geant_cost_network.node[21].content_store 	decision_no[21] 	1928147
scalar geant_cost_network.node[21].content_store 	decision_ratio[21] 	0.0099856489670594
scalar geant_cost_network.node[21].content_store 	correction_factor[21] 	0.001
scalar geant_cost_network.node[21].content_store 	xi[21] 	1
scalar geant_cost_network.node[22].core_layer 	interests[22] 	3834039
scalar geant_cost_network.node[22].core_layer 	repo_load[22] 	3834039
scalar geant_cost_network.node[22].core_layer 	data[22] 	0
scalar geant_cost_network.node[22].content_store 	p_hit[22] 	0
scalar geant_cost_network.node[22].content_store 	hits[22] 	0
scalar geant_cost_network.node[22].content_store 	misses[22] 	3834039
scalar geant_cost_network.node[22].content_store 	decision_yes[22] 	0
scalar geant_cost_network.node[22].content_store 	decision_no[22] 	3834039
scalar geant_cost_network.node[22].content_store 	decision_ratio[22] 	0
scalar geant_cost_network.node[23].core_layer 	interests[23] 	1977144
scalar geant_cost_network.node[23].core_layer 	repo_load[23] 	1977144
scalar geant_cost_network.node[23].core_layer 	data[23] 	0
scalar geant_cost_network.node[23].content_store 	p_hit[23] 	0
scalar geant_cost_network.node[23].content_store 	hits[23] 	0
scalar geant_cost_network.node[23].content_store 	misses[23] 	1977144
scalar geant_cost_network.node[23].content_store 	decision_yes[23] 	0
scalar geant_cost_network.node[23].content_store 	decision_no[23] 	1977144
scalar geant_cost_network.node[23].content_store 	decision_ratio[23] 	0
scalar geant_cost_network.node[24].core_layer 	interests[24] 	1947595
scalar geant_cost_network.node[24].core_layer 	repo_load[24] 	1947595
scalar geant_cost_network.node[24].core_layer 	data[24] 	0
scalar geant_cost_network.node[24].content_store 	p_hit[24] 	0
scalar geant_cost_network.node[24].content_store 	hits[24] 	0
scalar geant_cost_network.node[24].content_store 	misses[24] 	1947595
scalar geant_cost_network.node[24].content_store 	decision_yes[24] 	0
scalar geant_cost_network.node[24].content_store 	decision_no[24] 	1947595
scalar geant_cost_network.node[24].content_store 	decision_ratio[24] 	0
scalar geant_cost_network.client[5] 	hdistance[5] 	3.3509239738709
scalar geant_cost_network.client[5] 	downloads[5] 	2649155
scalar geant_cost_network.client[5] 	avg_time[5] 	0.009758804374
scalar geant_cost_network.client[5] 	interests_sent[5] 	2678847
scalar geant_cost_network.client[9] 	hdistance[9] 	3.4190197933994
scalar geant_cost_network.client[9] 	downloads[9] 	2660786
scalar geant_cost_network.client[9] 	avg_time[9] 	0.004872877279
scalar geant_cost_network.client[9] 	interests_sent[9] 	2679266
scalar geant_cost_network.client[10] 	hdistance[10] 	4.3743398294629
scalar geant_cost_network.client[10] 	downloads[10] 	2652913
scalar geant_cost_network.client[10] 	avg_time[10] 	0.006773258681
scalar geant_cost_network.client[10] 	interests_sent[10] 	2676747
scalar geant_cost_network.client[12] 	hdistance[12] 	3.6047019946171
scalar geant_cost_network.client[12] 	downloads[12] 	2661764
scalar geant_cost_network.client[12] 	avg_time[12] 	0.005572075552
scalar geant_cost_network.client[12] 	interests_sent[12] 	2678295
scalar geant_cost_network.client[20] 	hdistance[20] 	3.6660782569881
scalar geant_cost_network.client[20] 	downloads[20] 	2668209
scalar geant_cost_network.client[20] 	avg_time[20] 	0.007203581921
scalar geant_cost_network.client[20] 	interests_sent[20] 	2680289
