version 2
run General-4419-20140423-20:23:42-31545
attr D fix0.1
attr F nrr
attr R lru
attr a 1.2
attr configname General
attr csize 2
attr ctlg 10^3
attr datetime 20140423-20:23:42
attr experiment General
attr inifile omnetpp.ini
attr iterationvars "$net=simple_scenario, $rep=13, $priceratiovalue=3, $a=1.2, $ctlg=10^3, $F=nrr, $ttl=1000, $D=fix0.1, $R=lru, $csize=2"
attr iterationvars2 "$net=simple_scenario, $rep=13, $priceratiovalue=3, $a=1.2, $ctlg=10^3, $F=nrr, $ttl=1000, $D=fix0.1, $R=lru, $csize=2, $repetition=0"
attr measurement "$net=simple_scenario, $rep=13, $priceratiovalue=3, $a=1.2, $ctlg=10^3, $F=nrr, $ttl=1000, $D=fix0.1, $R=lru, $csize=2"
attr net simple_scenario
attr network networks.${net=simple_scenario}_network
attr priceratiovalue 3
attr processid 31545
attr rep 13
attr repetition 0
attr replication #0
attr resultdir results
attr runnumber 4419
attr seedset 13
attr ttl 1000

scalar . 	a 	1.2
scalar . 	csize 	2
scalar . 	priceratiovalue 	3
scalar . 	rep 	13
scalar . 	ttl 	1000
scalar simple_scenario_network.content_distribution 	repo-0 	3
scalar simple_scenario_network.content_distribution 	repo-1 	4
scalar simple_scenario_network.content_distribution 	client-0 	0
scalar simple_scenario_network.content_distribution 	repo-0_card 	509
scalar simple_scenario_network.content_distribution 	repo-1_card 	491
scalar simple_scenario_network.statistics 	p_hit 	0.11027621416416
scalar simple_scenario_network.statistics 	interests 	91668
scalar simple_scenario_network.statistics 	data 	55701.2
scalar simple_scenario_network.statistics 	hdistance 	2.2676245871192
scalar simple_scenario_network.statistics 	avg_time 	0.001985814166
scalar simple_scenario_network.statistics 	downloads 	179834
scalar simple_scenario_network.statistics 	total_cost 	51748
scalar simple_scenario_network.node[0].core_layer 	interests[0] 	179834
scalar simple_scenario_network.node[0].core_layer 	data[0] 	149216
scalar simple_scenario_network.node[0].core_layer 	repo_int[0] 	129290
scalar simple_scenario_network.node[0].content_store 	p_hit[0] 	0.17025701480254
scalar simple_scenario_network.node[0].content_store 	hits[0] 	30618
scalar simple_scenario_network.node[0].content_store 	misses[0] 	149216
scalar simple_scenario_network.node[1].core_layer 	interests[1] 	108769
scalar simple_scenario_network.node[1].core_layer 	data[1] 	90438
scalar simple_scenario_network.node[1].content_store 	p_hit[1] 	0.1685314749607
scalar simple_scenario_network.node[1].content_store 	hits[1] 	18331
scalar simple_scenario_network.node[1].content_store 	misses[1] 	90438
scalar simple_scenario_network.node[2].core_layer 	interests[2] 	40447
scalar simple_scenario_network.node[2].core_layer 	data[2] 	38852
scalar simple_scenario_network.node[2].content_store 	p_hit[2] 	0.03943432145771
scalar simple_scenario_network.node[2].content_store 	hits[2] 	1595
scalar simple_scenario_network.node[2].content_store 	misses[2] 	38852
scalar simple_scenario_network.node[3].core_layer 	interests[3] 	90438
scalar simple_scenario_network.node[3].core_layer 	repo_load[3] 	90438
scalar simple_scenario_network.node[3].core_layer 	data[3] 	0
scalar simple_scenario_network.node[3].content_store 	p_hit[3] 	0
scalar simple_scenario_network.node[3].content_store 	hits[3] 	0
scalar simple_scenario_network.node[3].content_store 	misses[3] 	90438
scalar simple_scenario_network.node[4].core_layer 	interests[4] 	38852
scalar simple_scenario_network.node[4].core_layer 	repo_load[4] 	38852
scalar simple_scenario_network.node[4].core_layer 	data[4] 	0
scalar simple_scenario_network.node[4].content_store 	p_hit[4] 	0
scalar simple_scenario_network.node[4].content_store 	hits[4] 	0
scalar simple_scenario_network.node[4].content_store 	misses[4] 	38852
scalar simple_scenario_network.client[0] 	hdistance[0] 	2.2676245871192
scalar simple_scenario_network.client[0] 	downloads[0] 	179834
scalar simple_scenario_network.client[0] 	avg_time[0] 	0.001985814166
