version 2
run General-3-20150629-18:31:43-21533
attr D lce
attr F spr
attr R lru_repr
attr a 1
attr brates 0.3_0.7_1.5_2.5_3
attr configname General
attr datetime 20150629-18:31:43
attr experiment General
attr inifile omnetpp.ini
attr iterationvars "$net=video_simple_scenario, $rep=0, $lambda=1000, $a=1, $brates=0.3_0.7_1.5_2.5_3, $F=spr, $ttl=1000, $D=lce, $R=lru_repr, $window=60, $variance=0.05, $mytime=18000"
attr iterationvars2 "$net=video_simple_scenario, $rep=0, $lambda=1000, $a=1, $brates=0.3_0.7_1.5_2.5_3, $F=spr, $ttl=1000, $D=lce, $R=lru_repr, $window=60, $variance=0.05, $mytime=18000, $repetition=0"
attr lambda 1000
attr measurement "$net=video_simple_scenario, $rep=0, $lambda=1000, $a=1, $brates=0.3_0.7_1.5_2.5_3, $F=spr, $ttl=1000, $D=lce, $R=lru_repr, $window=60, $variance=0.05, $mytime=18000"
attr mytime 18000
attr net video_simple_scenario
attr network networks.${net=video_simple_scenario}_network
attr processid 21533
attr rep 0
attr repetition 0
attr replication #0
attr resultdir results
attr runnumber 3
attr seedset 0
attr ttl 1000
attr variance 0.05
attr window 60

scalar . 	a 	1
scalar . 	lambda 	1000
scalar . 	mytime 	18000
scalar . 	rep 	0
scalar . 	ttl 	1000
scalar . 	variance 	0.05
scalar . 	window 	60
scalar video_simple_scenario_network.content_distribution 	repo-0 	0
scalar video_simple_scenario_network.content_distribution 	client-0 	0
scalar video_simple_scenario_network.content_distribution 	repo-0_card 	10000
scalar video_simple_scenario_network.content_distribution 	repo-0_price 	0
scalar video_simple_scenario_network.statistics 	stabilization_time 	60.2
scalar video_simple_scenario_network.statistics 	p_hit 	0.27004225586824
scalar video_simple_scenario_network.statistics 	interests 	24657167
scalar video_simple_scenario_network.statistics 	data 	0
scalar video_simple_scenario_network.statistics 	hdistance 	0.6300576875317
scalar video_simple_scenario_network.statistics 	avg_time 	0
scalar video_simple_scenario_network.statistics 	downloads 	17998690
scalar video_simple_scenario_network.statistics 	total_cost 	0
scalar video_simple_scenario_network.statistics 	total_replicas 	10000
scalar video_simple_scenario_network.statistics 	inner_hit 	0
scalar video_simple_scenario_network.statistics 	interests_sent 	17998690
scalar video_simple_scenario_network.node[0].core_layer 	interests[0] 	24657167
scalar video_simple_scenario_network.node[0].core_layer 	repo_load[0] 	17998690
scalar video_simple_scenario_network.node[0].core_layer 	data[0] 	0
scalar video_simple_scenario_network.node[0].core_layer 	megabytes_sent[face$o[1]->client[0]] 	23379062
scalar video_simple_scenario_network.node[0].content_store 	p_hit[0] 	0.27004225586824
scalar video_simple_scenario_network.node[0].content_store 	hits[0] 	6658477
scalar video_simple_scenario_network.node[0].content_store 	misses[0] 	17998690
scalar video_simple_scenario_network.node[0].content_store 	decision_yes[0] 	17998690
scalar video_simple_scenario_network.node[0].content_store 	decision_no[0] 	0
scalar video_simple_scenario_network.node[0].content_store 	decision_ratio[0] 	1
scalar video_simple_scenario_network.node[0].content_store 	"representation_breakdown[0] 68:16:0:0:0:" 	0
