version 2
run General-3209-20140423-19:53:11-30235
attr D prob_cache
attr F nrr
attr R lru
attr a 0
attr configname General
attr csize 2
attr ctlg 10^3
attr datetime 20140423-19:53:11
attr experiment General
attr inifile omnetpp.ini
attr iterationvars "$net=simple_scenario, $rep=9, $priceratiovalue=10, $a=0, $ctlg=10^3, $F=nrr, $ttl=1000, $D=prob_cache, $R=lru, $csize=2"
attr iterationvars2 "$net=simple_scenario, $rep=9, $priceratiovalue=10, $a=0, $ctlg=10^3, $F=nrr, $ttl=1000, $D=prob_cache, $R=lru, $csize=2, $repetition=0"
attr measurement "$net=simple_scenario, $rep=9, $priceratiovalue=10, $a=0, $ctlg=10^3, $F=nrr, $ttl=1000, $D=prob_cache, $R=lru, $csize=2"
attr net simple_scenario
attr network networks.${net=simple_scenario}_network
attr priceratiovalue 10
attr processid 30235
attr rep 9
attr repetition 0
attr replication #0
attr resultdir results
attr runnumber 3209
attr seedset 9
attr ttl 1000

scalar . 	a 	0
scalar . 	csize 	2
scalar . 	priceratiovalue 	10
scalar . 	rep 	9
scalar . 	ttl 	1000
scalar simple_scenario_network.content_distribution 	repo-0 	3
scalar simple_scenario_network.content_distribution 	repo-1 	4
scalar simple_scenario_network.content_distribution 	client-0 	0
scalar simple_scenario_network.content_distribution 	repo-0_card 	514
scalar simple_scenario_network.content_distribution 	repo-1_card 	486
scalar simple_scenario_network.statistics 	p_hit 	0.00194006569515
scalar simple_scenario_network.statistics 	interests 	107831.4
scalar simple_scenario_network.statistics 	data 	71796.6
scalar simple_scenario_network.statistics 	hdistance 	2.9866184910143
scalar simple_scenario_network.statistics 	avg_time 	0.001999732017
scalar simple_scenario_network.statistics 	downloads 	180174
scalar simple_scenario_network.statistics 	total_cost 	87561
scalar simple_scenario_network.node[0].core_layer 	interests[0] 	180174
scalar simple_scenario_network.node[0].core_layer 	data[0] 	179855
scalar simple_scenario_network.node[0].core_layer 	repo_int[0] 	179128
scalar simple_scenario_network.node[0].content_store 	p_hit[0] 	0.001770510728518
scalar simple_scenario_network.node[0].content_store 	hits[0] 	319
scalar simple_scenario_network.node[0].content_store 	misses[0] 	179855
scalar simple_scenario_network.node[1].core_layer 	interests[1] 	92360
scalar simple_scenario_network.node[1].core_layer 	data[1] 	92011
scalar simple_scenario_network.node[1].content_store 	p_hit[1] 	0.0037786920744911
scalar simple_scenario_network.node[1].content_store 	hits[1] 	349
scalar simple_scenario_network.node[1].content_store 	misses[1] 	92011
scalar simple_scenario_network.node[2].core_layer 	interests[2] 	87495
scalar simple_scenario_network.node[2].core_layer 	data[2] 	87117
scalar simple_scenario_network.node[2].content_store 	p_hit[2] 	0.0043202468712498
scalar simple_scenario_network.node[2].content_store 	hits[2] 	378
scalar simple_scenario_network.node[2].content_store 	misses[2] 	87117
scalar simple_scenario_network.node[3].core_layer 	interests[3] 	92011
scalar simple_scenario_network.node[3].core_layer 	repo_load[3] 	92011
scalar simple_scenario_network.node[3].core_layer 	data[3] 	0
scalar simple_scenario_network.node[3].content_store 	p_hit[3] 	0
scalar simple_scenario_network.node[3].content_store 	hits[3] 	0
scalar simple_scenario_network.node[3].content_store 	misses[3] 	92011
scalar simple_scenario_network.node[4].core_layer 	interests[4] 	87117
scalar simple_scenario_network.node[4].core_layer 	repo_load[4] 	87117
scalar simple_scenario_network.node[4].core_layer 	data[4] 	0
scalar simple_scenario_network.node[4].content_store 	p_hit[4] 	0
scalar simple_scenario_network.node[4].content_store 	hits[4] 	0
scalar simple_scenario_network.node[4].content_store 	misses[4] 	87117
scalar simple_scenario_network.client[0] 	hdistance[0] 	2.9866184910143
scalar simple_scenario_network.client[0] 	downloads[0] 	180174
scalar simple_scenario_network.client[0] 	avg_time[0] 	0.001999732017
