version 2
run General-0-20150612-15:02:49-30239
attr D two_lru
attr F nrr
attr R lru
attr a 1
attr configname General
attr datetime 20150612-15:02:49
attr experiment General
attr inifile omnetpp.ini
attr iterationvars "$net=abilene, $rep=0, $a=1, $F=nrr, $ttl=1000, $D=two_lru, $R=lru"
attr iterationvars2 "$net=abilene, $rep=0, $a=1, $F=nrr, $ttl=1000, $D=two_lru, $R=lru, $repetition=0"
attr measurement "$net=abilene, $rep=0, $a=1, $F=nrr, $ttl=1000, $D=two_lru, $R=lru"
attr net abilene
attr network networks.${net=abilene,geant}_network
attr processid 30239
attr rep 0
attr repetition 0
attr replication #0
attr resultdir results
attr runnumber 0
attr seedset 0
attr ttl 1000

scalar . 	a 	1
scalar . 	rep 	0
scalar . 	ttl 	1000
scalar abilene_network.content_distribution 	repo-0 	5
scalar abilene_network.content_distribution 	repo-1 	8
scalar abilene_network.content_distribution 	repo-2 	9
scalar abilene_network.content_distribution 	repo-3 	0
scalar abilene_network.content_distribution 	repo-4 	1
scalar abilene_network.content_distribution 	repo-5 	7
scalar abilene_network.content_distribution 	repo-6 	6
scalar abilene_network.content_distribution 	repo-7 	2
scalar abilene_network.content_distribution 	repo-8 	4
scalar abilene_network.content_distribution 	repo-9 	10
scalar abilene_network.content_distribution 	repo-10 	3
scalar abilene_network.content_distribution 	client-0 	10
scalar abilene_network.content_distribution 	client-1 	9
scalar abilene_network.content_distribution 	client-2 	8
scalar abilene_network.content_distribution 	client-3 	7
scalar abilene_network.content_distribution 	client-4 	3
scalar abilene_network.content_distribution 	client-5 	6
scalar abilene_network.content_distribution 	client-6 	5
scalar abilene_network.content_distribution 	client-7 	1
scalar abilene_network.content_distribution 	client-8 	4
scalar abilene_network.content_distribution 	client-9 	0
scalar abilene_network.content_distribution 	client-10 	2
scalar abilene_network.content_distribution 	repo-0_card 	930
scalar abilene_network.content_distribution 	repo-0_price 	0
scalar abilene_network.content_distribution 	repo-1_card 	833
scalar abilene_network.content_distribution 	repo-1_price 	0
scalar abilene_network.content_distribution 	repo-2_card 	911
scalar abilene_network.content_distribution 	repo-2_price 	0
scalar abilene_network.content_distribution 	repo-3_card 	918
scalar abilene_network.content_distribution 	repo-3_price 	0
scalar abilene_network.content_distribution 	repo-4_card 	885
scalar abilene_network.content_distribution 	repo-4_price 	0
scalar abilene_network.content_distribution 	repo-5_card 	973
scalar abilene_network.content_distribution 	repo-5_price 	0
scalar abilene_network.content_distribution 	repo-6_card 	915
scalar abilene_network.content_distribution 	repo-6_price 	0
scalar abilene_network.content_distribution 	repo-7_card 	937
scalar abilene_network.content_distribution 	repo-7_price 	0
scalar abilene_network.content_distribution 	repo-8_card 	890
scalar abilene_network.content_distribution 	repo-8_price 	0
scalar abilene_network.content_distribution 	repo-9_card 	891
scalar abilene_network.content_distribution 	repo-9_price 	0
scalar abilene_network.content_distribution 	repo-10_card 	917
scalar abilene_network.content_distribution 	repo-10_price 	0
scalar abilene_network.statistics 	stabilization_time 	346.1
scalar abilene_network.statistics 	p_hit 	0.25588268471517
scalar abilene_network.statistics 	interests 	4029.5454545455
scalar abilene_network.statistics 	data 	2220.4545454545
scalar abilene_network.statistics 	hdistance 	1.6578251316194
scalar abilene_network.statistics 	avg_time 	0.007930613225
scalar abilene_network.statistics 	downloads 	19901
scalar abilene_network.statistics 	total_cost 	0
scalar abilene_network.statistics 	total_replicas 	10000
scalar abilene_network.statistics 	inner_hit 	0.56992110949199
scalar abilene_network.node[0].core_layer 	interests[0] 	2635
scalar abilene_network.node[0].core_layer 	repo_load[0] 	736
scalar abilene_network.node[0].core_layer 	data[0] 	1010
scalar abilene_network.node[0].core_layer 	megabytes_sent[face$o[0]->client[0]] 	0
scalar abilene_network.node[0].core_layer 	megabytes_sent[face$o[1]->node[1]] 	0
scalar abilene_network.node[0].core_layer 	megabytes_sent[face$o[2]->node[10]] 	0
scalar abilene_network.node[0].content_store 	p_hit[0] 	0.33738140417457
scalar abilene_network.node[0].content_store 	hits[0] 	889
scalar abilene_network.node[0].content_store 	misses[0] 	1746
scalar abilene_network.node[0].content_store 	decision_yes[0] 	1105
scalar abilene_network.node[0].content_store 	decision_no[0] 	641
scalar abilene_network.node[0].content_store 	decision_ratio[0] 	0.63287514318442
scalar abilene_network.node[1].core_layer 	interests[1] 	4589
scalar abilene_network.node[1].core_layer 	repo_load[1] 	752
scalar abilene_network.node[1].core_layer 	data[1] 	2837
scalar abilene_network.node[1].core_layer 	megabytes_sent[face$o[0]->client[1]] 	0
scalar abilene_network.node[1].core_layer 	megabytes_sent[face$o[1]->node[0]] 	0
scalar abilene_network.node[1].core_layer 	megabytes_sent[face$o[2]->node[10]] 	0
scalar abilene_network.node[1].core_layer 	megabytes_sent[face$o[3]->node[2]] 	0
scalar abilene_network.node[1].content_store 	p_hit[1] 	0.21791239921552
scalar abilene_network.node[1].content_store 	hits[1] 	1000
scalar abilene_network.node[1].content_store 	misses[1] 	3589
scalar abilene_network.node[1].content_store 	decision_yes[1] 	2136
scalar abilene_network.node[1].content_store 	decision_no[1] 	1453
scalar abilene_network.node[1].content_store 	decision_ratio[1] 	0.59515185288381
scalar abilene_network.node[2].core_layer 	interests[2] 	5952
scalar abilene_network.node[2].core_layer 	repo_load[2] 	928
scalar abilene_network.node[2].core_layer 	data[2] 	4010
scalar abilene_network.node[2].core_layer 	megabytes_sent[face$o[0]->client[2]] 	0
scalar abilene_network.node[2].core_layer 	megabytes_sent[face$o[1]->node[1]] 	0
scalar abilene_network.node[2].core_layer 	megabytes_sent[face$o[2]->node[3]] 	0
scalar abilene_network.node[2].core_layer 	megabytes_sent[face$o[3]->node[8]] 	0
scalar abilene_network.node[2].content_store 	p_hit[2] 	0.17036290322581
scalar abilene_network.node[2].content_store 	hits[2] 	1014
scalar abilene_network.node[2].content_store 	misses[2] 	4938
scalar abilene_network.node[2].content_store 	decision_yes[2] 	3067
scalar abilene_network.node[2].content_store 	decision_no[2] 	1871
scalar abilene_network.node[2].content_store 	decision_ratio[2] 	0.62110166059133
scalar abilene_network.node[3].core_layer 	interests[3] 	5567
scalar abilene_network.node[3].core_layer 	repo_load[3] 	862
scalar abilene_network.node[3].core_layer 	data[3] 	3746
scalar abilene_network.node[3].core_layer 	megabytes_sent[face$o[0]->client[3]] 	0
scalar abilene_network.node[3].core_layer 	megabytes_sent[face$o[1]->node[2]] 	0
scalar abilene_network.node[3].core_layer 	megabytes_sent[face$o[2]->node[4]] 	0
scalar abilene_network.node[3].core_layer 	megabytes_sent[face$o[3]->node[7]] 	0
scalar abilene_network.node[3].content_store 	p_hit[3] 	0.17226513382432
scalar abilene_network.node[3].content_store 	hits[3] 	959
scalar abilene_network.node[3].content_store 	misses[3] 	4608
scalar abilene_network.node[3].content_store 	decision_yes[3] 	2859
scalar abilene_network.node[3].content_store 	decision_no[3] 	1749
scalar abilene_network.node[3].content_store 	decision_ratio[3] 	0.62044270833333
scalar abilene_network.node[4].core_layer 	interests[4] 	3622
scalar abilene_network.node[4].core_layer 	repo_load[4] 	696
scalar abilene_network.node[4].core_layer 	data[4] 	1861
scalar abilene_network.node[4].core_layer 	megabytes_sent[face$o[0]->client[4]] 	0
scalar abilene_network.node[4].core_layer 	megabytes_sent[face$o[1]->node[3]] 	0
scalar abilene_network.node[4].core_layer 	megabytes_sent[face$o[2]->node[5]] 	0
scalar abilene_network.node[4].content_store 	p_hit[4] 	0.29403644395362
scalar abilene_network.node[4].content_store 	hits[4] 	1065
scalar abilene_network.node[4].content_store 	misses[4] 	2557
scalar abilene_network.node[4].content_store 	decision_yes[4] 	1503
scalar abilene_network.node[4].content_store 	decision_no[4] 	1054
scalar abilene_network.node[4].content_store 	decision_ratio[4] 	0.58779820101682
scalar abilene_network.node[5].core_layer 	interests[5] 	3025
scalar abilene_network.node[5].core_layer 	repo_load[5] 	805
scalar abilene_network.node[5].core_layer 	data[5] 	1219
scalar abilene_network.node[5].core_layer 	megabytes_sent[face$o[0]->client[5]] 	0
scalar abilene_network.node[5].core_layer 	megabytes_sent[face$o[1]->node[4]] 	0
scalar abilene_network.node[5].core_layer 	megabytes_sent[face$o[2]->node[6]] 	0
scalar abilene_network.node[5].content_store 	p_hit[5] 	0.33090909090909
scalar abilene_network.node[5].content_store 	hits[5] 	1001
scalar abilene_network.node[5].content_store 	misses[5] 	2024
scalar abilene_network.node[5].content_store 	decision_yes[5] 	1279
scalar abilene_network.node[5].content_store 	decision_no[5] 	745
scalar abilene_network.node[5].content_store 	decision_ratio[5] 	0.63191699604743
scalar abilene_network.node[6].core_layer 	interests[6] 	3375
scalar abilene_network.node[6].core_layer 	repo_load[6] 	807
scalar abilene_network.node[6].core_layer 	data[6] 	1577
scalar abilene_network.node[6].core_layer 	megabytes_sent[face$o[0]->client[6]] 	0
scalar abilene_network.node[6].core_layer 	megabytes_sent[face$o[1]->node[5]] 	0
scalar abilene_network.node[6].core_layer 	megabytes_sent[face$o[2]->node[7]] 	0
scalar abilene_network.node[6].content_store 	p_hit[6] 	0.29362962962963
scalar abilene_network.node[6].content_store 	hits[6] 	991
scalar abilene_network.node[6].content_store 	misses[6] 	2384
scalar abilene_network.node[6].content_store 	decision_yes[6] 	1463
scalar abilene_network.node[6].content_store 	decision_no[6] 	921
scalar abilene_network.node[6].content_store 	decision_ratio[6] 	0.6136744966443
scalar abilene_network.node[7].core_layer 	interests[7] 	4460
scalar abilene_network.node[7].core_layer 	repo_load[7] 	743
scalar abilene_network.node[7].core_layer 	data[7] 	2591
scalar abilene_network.node[7].core_layer 	megabytes_sent[face$o[0]->client[7]] 	0
scalar abilene_network.node[7].core_layer 	megabytes_sent[face$o[1]->node[3]] 	0
scalar abilene_network.node[7].core_layer 	megabytes_sent[face$o[2]->node[6]] 	0
scalar abilene_network.node[7].core_layer 	megabytes_sent[face$o[3]->node[8]] 	0
scalar abilene_network.node[7].content_store 	p_hit[7] 	0.252466367713
scalar abilene_network.node[7].content_store 	hits[7] 	1126
scalar abilene_network.node[7].content_store 	misses[7] 	3334
scalar abilene_network.node[7].content_store 	decision_yes[7] 	2022
scalar abilene_network.node[7].content_store 	decision_no[7] 	1312
scalar abilene_network.node[7].content_store 	decision_ratio[7] 	0.60647870425915
scalar abilene_network.node[8].core_layer 	interests[8] 	4371
scalar abilene_network.node[8].core_layer 	repo_load[8] 	727
scalar abilene_network.node[8].core_layer 	data[8] 	2534
scalar abilene_network.node[8].core_layer 	megabytes_sent[face$o[0]->client[8]] 	0
scalar abilene_network.node[8].core_layer 	megabytes_sent[face$o[1]->node[2]] 	0
scalar abilene_network.node[8].core_layer 	megabytes_sent[face$o[2]->node[7]] 	0
scalar abilene_network.node[8].core_layer 	megabytes_sent[face$o[3]->node[9]] 	0
scalar abilene_network.node[8].content_store 	p_hit[8] 	0.25394646533974
scalar abilene_network.node[8].content_store 	hits[8] 	1110
scalar abilene_network.node[8].content_store 	misses[8] 	3261
scalar abilene_network.node[8].content_store 	decision_yes[8] 	1969
scalar abilene_network.node[8].content_store 	decision_no[8] 	1292
scalar abilene_network.node[8].content_store 	decision_ratio[8] 	0.60380251456608
scalar abilene_network.node[9].core_layer 	interests[9] 	3420
scalar abilene_network.node[9].core_layer 	repo_load[9] 	760
scalar abilene_network.node[9].core_layer 	data[9] 	1602
scalar abilene_network.node[9].core_layer 	megabytes_sent[face$o[0]->client[9]] 	0
scalar abilene_network.node[9].core_layer 	megabytes_sent[face$o[1]->node[10]] 	0
scalar abilene_network.node[9].core_layer 	megabytes_sent[face$o[2]->node[8]] 	0
scalar abilene_network.node[9].content_store 	p_hit[9] 	0.30964912280702
scalar abilene_network.node[9].content_store 	hits[9] 	1059
scalar abilene_network.node[9].content_store 	misses[9] 	2361
scalar abilene_network.node[9].content_store 	decision_yes[9] 	1425
scalar abilene_network.node[9].content_store 	decision_no[9] 	937
scalar abilene_network.node[9].content_store 	decision_ratio[9] 	0.60330228619814
scalar abilene_network.node[10].core_layer 	interests[10] 	3309
scalar abilene_network.node[10].core_layer 	repo_load[10] 	743
scalar abilene_network.node[10].core_layer 	data[10] 	1438
scalar abilene_network.node[10].core_layer 	megabytes_sent[face$o[0]->client[10]] 	0
scalar abilene_network.node[10].core_layer 	megabytes_sent[face$o[1]->node[0]] 	0
scalar abilene_network.node[10].core_layer 	megabytes_sent[face$o[2]->node[1]] 	0
scalar abilene_network.node[10].core_layer 	megabytes_sent[face$o[3]->node[9]] 	0
scalar abilene_network.node[10].content_store 	p_hit[10] 	0.34088848594742
scalar abilene_network.node[10].content_store 	hits[10] 	1128
scalar abilene_network.node[10].content_store 	misses[10] 	2181
scalar abilene_network.node[10].content_store 	decision_yes[10] 	1321
scalar abilene_network.node[10].content_store 	decision_no[10] 	860
scalar abilene_network.node[10].content_store 	decision_ratio[10] 	0.60568546538285
scalar abilene_network.client[0] 	hdistance[0] 	2.0046029919448
scalar abilene_network.client[0] 	downloads[0] 	1738
scalar abilene_network.client[0] 	avg_time[0] 	0.010872600238
scalar abilene_network.client[1] 	hdistance[1] 	1.5677053824363
scalar abilene_network.client[1] 	downloads[1] 	1765
scalar abilene_network.client[1] 	avg_time[1] 	0.007183342328
scalar abilene_network.client[2] 	hdistance[2] 	1.4035975267004
scalar abilene_network.client[2] 	downloads[2] 	1779
scalar abilene_network.client[2] 	avg_time[2] 	0.005957099047
scalar abilene_network.client[3] 	hdistance[3] 	1.4896358543417
scalar abilene_network.client[3] 	downloads[3] 	1785
scalar abilene_network.client[3] 	avg_time[3] 	0.006091316075
scalar abilene_network.client[4] 	hdistance[4] 	1.7546145494028
scalar abilene_network.client[4] 	downloads[4] 	1842
scalar abilene_network.client[4] 	avg_time[4] 	0.006530086401
scalar abilene_network.client[5] 	hdistance[5] 	1.8832876712329
scalar abilene_network.client[5] 	downloads[5] 	1825
scalar abilene_network.client[5] 	avg_time[5] 	0.008124295424
scalar abilene_network.client[6] 	hdistance[6] 	1.7589485458613
scalar abilene_network.client[6] 	downloads[6] 	1788
scalar abilene_network.client[6] 	avg_time[6] 	0.008256610295
scalar abilene_network.client[7] 	hdistance[7] 	1.4757062146893
scalar abilene_network.client[7] 	downloads[7] 	1770
scalar abilene_network.client[7] 	avg_time[7] 	0.00668168319
scalar abilene_network.client[8] 	hdistance[8] 	1.4806776071996
scalar abilene_network.client[8] 	downloads[8] 	1889
scalar abilene_network.client[8] 	avg_time[8] 	0.007531052992
scalar abilene_network.client[9] 	hdistance[9] 	1.675647120972
scalar abilene_network.client[9] 	downloads[9] 	1893
scalar abilene_network.client[9] 	avg_time[9] 	0.010554505599
scalar abilene_network.client[10] 	hdistance[10] 	1.7416529830323
scalar abilene_network.client[10] 	downloads[10] 	1827
scalar abilene_network.client[10] 	avg_time[10] 	0.00945415389
