version 2
run General-1-20150520-10:59:46-7268
attr D two_lru
attr F nrr
attr R lru
attr a 1
attr configname General
attr datetime 20150520-10:59:46
attr experiment General
attr inifile omnetpp.ini
attr iterationvars "$net=abilene, $rep=0, $a=1, $F=nrr, $ttl=1000, $D=two_lru, $R=lru"
attr iterationvars2 "$net=abilene, $rep=0, $a=1, $F=nrr, $ttl=1000, $D=two_lru, $R=lru, $repetition=0"
attr measurement "$net=abilene, $rep=0, $a=1, $F=nrr, $ttl=1000, $D=two_lru, $R=lru"
attr net abilene
attr network networks.${net=abilene}_network
attr processid 7268
attr rep 0
attr repetition 0
attr replication #0
attr resultdir results
attr runnumber 1
attr seedset 0
attr ttl 1000

scalar . 	a 	1
scalar . 	rep 	0
scalar . 	ttl 	1000
scalar abilene_network.content_distribution 	repo-0 	5
scalar abilene_network.content_distribution 	repo-1 	8
scalar abilene_network.content_distribution 	repo-2 	9
scalar abilene_network.content_distribution 	repo-3 	0
scalar abilene_network.content_distribution 	repo-4 	1
scalar abilene_network.content_distribution 	repo-5 	7
scalar abilene_network.content_distribution 	repo-6 	6
scalar abilene_network.content_distribution 	repo-7 	2
scalar abilene_network.content_distribution 	repo-8 	4
scalar abilene_network.content_distribution 	repo-9 	10
scalar abilene_network.content_distribution 	repo-10 	3
scalar abilene_network.content_distribution 	client-0 	10
scalar abilene_network.content_distribution 	client-1 	9
scalar abilene_network.content_distribution 	client-2 	8
scalar abilene_network.content_distribution 	client-3 	7
scalar abilene_network.content_distribution 	client-4 	3
scalar abilene_network.content_distribution 	client-5 	6
scalar abilene_network.content_distribution 	client-6 	5
scalar abilene_network.content_distribution 	client-7 	1
scalar abilene_network.content_distribution 	client-8 	4
scalar abilene_network.content_distribution 	client-9 	0
scalar abilene_network.content_distribution 	client-10 	2
scalar abilene_network.content_distribution 	repo-0_card 	931
scalar abilene_network.content_distribution 	repo-0_price 	0
scalar abilene_network.content_distribution 	repo-1_card 	835
scalar abilene_network.content_distribution 	repo-1_price 	0
scalar abilene_network.content_distribution 	repo-2_card 	907
scalar abilene_network.content_distribution 	repo-2_price 	0
scalar abilene_network.content_distribution 	repo-3_card 	919
scalar abilene_network.content_distribution 	repo-3_price 	0
scalar abilene_network.content_distribution 	repo-4_card 	887
scalar abilene_network.content_distribution 	repo-4_price 	0
scalar abilene_network.content_distribution 	repo-5_card 	972
scalar abilene_network.content_distribution 	repo-5_price 	0
scalar abilene_network.content_distribution 	repo-6_card 	914
scalar abilene_network.content_distribution 	repo-6_price 	0
scalar abilene_network.content_distribution 	repo-7_card 	936
scalar abilene_network.content_distribution 	repo-7_price 	0
scalar abilene_network.content_distribution 	repo-8_card 	888
scalar abilene_network.content_distribution 	repo-8_price 	0
scalar abilene_network.content_distribution 	repo-9_card 	892
scalar abilene_network.content_distribution 	repo-9_price 	0
scalar abilene_network.content_distribution 	repo-10_card 	919
scalar abilene_network.content_distribution 	repo-10_price 	0
scalar abilene_network.statistics 	stabilization_time 	200.3
scalar abilene_network.statistics 	p_hit 	0.22648945720479
scalar abilene_network.statistics 	interests 	4151.9090909091
scalar abilene_network.statistics 	data 	2351.1818181818
scalar abilene_network.statistics 	hdistance 	1.7854249210831
scalar abilene_network.statistics 	avg_time 	0.008447862892
scalar abilene_network.statistics 	downloads 	19808
scalar abilene_network.statistics 	total_cost 	0
scalar abilene_network.statistics 	total_replicas 	10000
scalar abilene_network.statistics 	inner_hit 	0.52221324717286
scalar abilene_network.statistics 	interests_sent 	19808
scalar abilene_network.node[0].core_layer 	interests[0] 	2783
scalar abilene_network.node[0].core_layer 	repo_load[0] 	785
scalar abilene_network.node[0].core_layer 	data[0] 	1070
scalar abilene_network.node[0].core_layer 	repo_int[0] 	9464
scalar abilene_network.node[0].content_store 	p_hit[0] 	0.33345310815667
scalar abilene_network.node[0].content_store 	hits[0] 	928
scalar abilene_network.node[0].content_store 	misses[0] 	1855
scalar abilene_network.node[0].content_store 	decision_yes[0] 	1855
scalar abilene_network.node[0].content_store 	decision_no[0] 	0
scalar abilene_network.node[0].content_store 	decision_ratio[0] 	1
scalar abilene_network.node[1].core_layer 	interests[1] 	4801
scalar abilene_network.node[1].core_layer 	repo_load[1] 	848
scalar abilene_network.node[1].core_layer 	data[1] 	3080
scalar abilene_network.node[1].content_store 	p_hit[1] 	0.18183711726724
scalar abilene_network.node[1].content_store 	hits[1] 	873
scalar abilene_network.node[1].content_store 	misses[1] 	3928
scalar abilene_network.node[1].content_store 	decision_yes[1] 	3928
scalar abilene_network.node[1].content_store 	decision_no[1] 	0
scalar abilene_network.node[1].content_store 	decision_ratio[1] 	1
scalar abilene_network.node[2].core_layer 	interests[2] 	6362
scalar abilene_network.node[2].core_layer 	repo_load[2] 	1050
scalar abilene_network.node[2].core_layer 	data[2] 	4436
scalar abilene_network.node[2].content_store 	p_hit[2] 	0.13769254951273
scalar abilene_network.node[2].content_store 	hits[2] 	876
scalar abilene_network.node[2].content_store 	misses[2] 	5486
scalar abilene_network.node[2].content_store 	decision_yes[2] 	5486
scalar abilene_network.node[2].content_store 	decision_no[2] 	0
scalar abilene_network.node[2].content_store 	decision_ratio[2] 	1
scalar abilene_network.node[3].core_layer 	interests[3] 	5892
scalar abilene_network.node[3].core_layer 	repo_load[3] 	955
scalar abilene_network.node[3].core_layer 	data[3] 	4080
scalar abilene_network.node[3].content_store 	p_hit[3] 	0.14545145960625
scalar abilene_network.node[3].content_store 	hits[3] 	857
scalar abilene_network.node[3].content_store 	misses[3] 	5035
scalar abilene_network.node[3].content_store 	decision_yes[3] 	5035
scalar abilene_network.node[3].content_store 	decision_no[3] 	0
scalar abilene_network.node[3].content_store 	decision_ratio[3] 	1
scalar abilene_network.node[4].core_layer 	interests[4] 	3735
scalar abilene_network.node[4].core_layer 	repo_load[4] 	832
scalar abilene_network.node[4].core_layer 	data[4] 	2015
scalar abilene_network.node[4].content_store 	p_hit[4] 	0.23775100401606
scalar abilene_network.node[4].content_store 	hits[4] 	888
scalar abilene_network.node[4].content_store 	misses[4] 	2847
scalar abilene_network.node[4].content_store 	decision_yes[4] 	2847
scalar abilene_network.node[4].content_store 	decision_no[4] 	0
scalar abilene_network.node[4].content_store 	decision_ratio[4] 	1
scalar abilene_network.node[5].core_layer 	interests[5] 	3086
scalar abilene_network.node[5].core_layer 	repo_load[5] 	901
scalar abilene_network.node[5].core_layer 	data[5] 	1244
scalar abilene_network.node[5].content_store 	p_hit[5] 	0.3049254698639
scalar abilene_network.node[5].content_store 	hits[5] 	941
scalar abilene_network.node[5].content_store 	misses[5] 	2145
scalar abilene_network.node[5].content_store 	decision_yes[5] 	2145
scalar abilene_network.node[5].content_store 	decision_no[5] 	0
scalar abilene_network.node[5].content_store 	decision_ratio[5] 	1
scalar abilene_network.node[6].core_layer 	interests[6] 	3344
scalar abilene_network.node[6].core_layer 	repo_load[6] 	844
scalar abilene_network.node[6].core_layer 	data[6] 	1599
scalar abilene_network.node[6].content_store 	p_hit[6] 	0.26943779904306
scalar abilene_network.node[6].content_store 	hits[6] 	901
scalar abilene_network.node[6].content_store 	misses[6] 	2443
scalar abilene_network.node[6].content_store 	decision_yes[6] 	2443
scalar abilene_network.node[6].content_store 	decision_no[6] 	0
scalar abilene_network.node[6].content_store 	decision_ratio[6] 	1
scalar abilene_network.node[7].core_layer 	interests[7] 	4494
scalar abilene_network.node[7].core_layer 	repo_load[7] 	810
scalar abilene_network.node[7].core_layer 	data[7] 	2689
scalar abilene_network.node[7].content_store 	p_hit[7] 	0.22140631953716
scalar abilene_network.node[7].content_store 	hits[7] 	995
scalar abilene_network.node[7].content_store 	misses[7] 	3499
scalar abilene_network.node[7].content_store 	decision_yes[7] 	3499
scalar abilene_network.node[7].content_store 	decision_no[7] 	0
scalar abilene_network.node[7].content_store 	decision_ratio[7] 	1
scalar abilene_network.node[8].core_layer 	interests[8] 	4502
scalar abilene_network.node[8].core_layer 	repo_load[8] 	796
scalar abilene_network.node[8].core_layer 	data[8] 	2618
scalar abilene_network.node[8].content_store 	p_hit[8] 	0.24167036872501
scalar abilene_network.node[8].content_store 	hits[8] 	1088
scalar abilene_network.node[8].content_store 	misses[8] 	3414
scalar abilene_network.node[8].content_store 	decision_yes[8] 	3414
scalar abilene_network.node[8].content_store 	decision_no[8] 	0
scalar abilene_network.node[8].content_store 	decision_ratio[8] 	1
scalar abilene_network.node[9].core_layer 	interests[9] 	3405
scalar abilene_network.node[9].core_layer 	repo_load[9] 	873
scalar abilene_network.node[9].core_layer 	data[9] 	1592
scalar abilene_network.node[9].content_store 	p_hit[9] 	0.27606461086637
scalar abilene_network.node[9].content_store 	hits[9] 	940
scalar abilene_network.node[9].content_store 	misses[9] 	2465
scalar abilene_network.node[9].content_store 	decision_yes[9] 	2465
scalar abilene_network.node[9].content_store 	decision_no[9] 	0
scalar abilene_network.node[9].content_store 	decision_ratio[9] 	1
scalar abilene_network.node[10].core_layer 	interests[10] 	3267
scalar abilene_network.node[10].core_layer 	repo_load[10] 	770
scalar abilene_network.node[10].core_layer 	data[10] 	1440
scalar abilene_network.node[10].content_store 	p_hit[10] 	0.32353841444751
scalar abilene_network.node[10].content_store 	hits[10] 	1057
scalar abilene_network.node[10].content_store 	misses[10] 	2210
scalar abilene_network.node[10].content_store 	decision_yes[10] 	2210
scalar abilene_network.node[10].content_store 	decision_no[10] 	0
scalar abilene_network.node[10].content_store 	decision_ratio[10] 	1
scalar abilene_network.client[0] 	hdistance[0] 	2.0938202247191
scalar abilene_network.client[0] 	downloads[0] 	1780
scalar abilene_network.client[0] 	avg_time[0] 	0.011186651247
scalar abilene_network.client[0] 	interests_sent[0] 	1780
scalar abilene_network.client[1] 	hdistance[1] 	1.7150055991041
scalar abilene_network.client[1] 	downloads[1] 	1786
scalar abilene_network.client[1] 	avg_time[1] 	0.007674825982
scalar abilene_network.client[1] 	interests_sent[1] 	1786
scalar abilene_network.client[2] 	hdistance[2] 	1.6154672395274
scalar abilene_network.client[2] 	downloads[2] 	1862
scalar abilene_network.client[2] 	avg_time[2] 	0.006965842727
scalar abilene_network.client[2] 	interests_sent[2] 	1862
scalar abilene_network.client[3] 	hdistance[3] 	1.6178770949721
scalar abilene_network.client[3] 	downloads[3] 	1790
scalar abilene_network.client[3] 	avg_time[3] 	0.006650826364
scalar abilene_network.client[3] 	interests_sent[3] 	1790
scalar abilene_network.client[4] 	hdistance[4] 	1.9204859193816
scalar abilene_network.client[4] 	downloads[4] 	1811
scalar abilene_network.client[4] 	avg_time[4] 	0.00729749264
scalar abilene_network.client[4] 	interests_sent[4] 	1811
scalar abilene_network.client[5] 	hdistance[5] 	2
scalar abilene_network.client[5] 	downloads[5] 	1774
scalar abilene_network.client[5] 	avg_time[5] 	0.008472434725
scalar abilene_network.client[5] 	interests_sent[5] 	1774
scalar abilene_network.client[6] 	hdistance[6] 	1.9081690140845
scalar abilene_network.client[6] 	downloads[6] 	1775
scalar abilene_network.client[6] 	avg_time[6] 	0.008766410812
scalar abilene_network.client[6] 	interests_sent[6] 	1775
scalar abilene_network.client[7] 	hdistance[7] 	1.5896860986547
scalar abilene_network.client[7] 	downloads[7] 	1784
scalar abilene_network.client[7] 	avg_time[7] 	0.007170055606
scalar abilene_network.client[7] 	interests_sent[7] 	1784
scalar abilene_network.client[8] 	hdistance[8] 	1.5534858967536
scalar abilene_network.client[8] 	downloads[8] 	1879
scalar abilene_network.client[8] 	avg_time[8] 	0.007903597182
scalar abilene_network.client[8] 	interests_sent[8] 	1879
scalar abilene_network.client[9] 	hdistance[9] 	1.781838316722
scalar abilene_network.client[9] 	downloads[9] 	1806
scalar abilene_network.client[9] 	avg_time[9] 	0.011132801309
scalar abilene_network.client[9] 	interests_sent[9] 	1806
scalar abilene_network.client[10] 	hdistance[10] 	1.8438387279955
scalar abilene_network.client[10] 	downloads[10] 	1761
scalar abilene_network.client[10] 	avg_time[10] 	0.009705553225
scalar abilene_network.client[10] 	interests_sent[10] 	1761
