version 2
run General-0-20150521-12:00:30-11071
attr D two_lru
attr F nrr
attr R lru
attr a 1
attr configname General
attr datetime 20150521-12:00:30
attr experiment General
attr inifile omnetpp.ini
attr iterationvars "$net=abilene, $rep=0, $a=1, $F=nrr, $ttl=1000, $D=two_lru, $R=lru"
attr iterationvars2 "$net=abilene, $rep=0, $a=1, $F=nrr, $ttl=1000, $D=two_lru, $R=lru, $repetition=0"
attr measurement "$net=abilene, $rep=0, $a=1, $F=nrr, $ttl=1000, $D=two_lru, $R=lru"
attr net abilene
attr network networks.${net=abilene}_network
attr processid 11071
attr rep 0
attr repetition 0
attr replication #0
attr resultdir results
attr runnumber 0
attr seedset 0
attr ttl 1000

scalar . 	a 	1
scalar . 	rep 	0
scalar . 	ttl 	1000
scalar abilene_network.content_distribution 	repo-0 	5
scalar abilene_network.content_distribution 	repo-1 	8
scalar abilene_network.content_distribution 	repo-2 	9
scalar abilene_network.content_distribution 	repo-3 	0
scalar abilene_network.content_distribution 	repo-4 	1
scalar abilene_network.content_distribution 	repo-5 	7
scalar abilene_network.content_distribution 	repo-6 	6
scalar abilene_network.content_distribution 	repo-7 	2
scalar abilene_network.content_distribution 	repo-8 	4
scalar abilene_network.content_distribution 	repo-9 	10
scalar abilene_network.content_distribution 	repo-10 	3
scalar abilene_network.content_distribution 	client-0 	10
scalar abilene_network.content_distribution 	client-1 	9
scalar abilene_network.content_distribution 	client-2 	8
scalar abilene_network.content_distribution 	client-3 	7
scalar abilene_network.content_distribution 	client-4 	3
scalar abilene_network.content_distribution 	client-5 	6
scalar abilene_network.content_distribution 	client-6 	5
scalar abilene_network.content_distribution 	client-7 	1
scalar abilene_network.content_distribution 	client-8 	4
scalar abilene_network.content_distribution 	client-9 	0
scalar abilene_network.content_distribution 	client-10 	2
scalar abilene_network.content_distribution 	repo-0_card 	930
scalar abilene_network.content_distribution 	repo-0_price 	0
scalar abilene_network.content_distribution 	repo-1_card 	833
scalar abilene_network.content_distribution 	repo-1_price 	0
scalar abilene_network.content_distribution 	repo-2_card 	911
scalar abilene_network.content_distribution 	repo-2_price 	0
scalar abilene_network.content_distribution 	repo-3_card 	918
scalar abilene_network.content_distribution 	repo-3_price 	0
scalar abilene_network.content_distribution 	repo-4_card 	885
scalar abilene_network.content_distribution 	repo-4_price 	0
scalar abilene_network.content_distribution 	repo-5_card 	973
scalar abilene_network.content_distribution 	repo-5_price 	0
scalar abilene_network.content_distribution 	repo-6_card 	915
scalar abilene_network.content_distribution 	repo-6_price 	0
scalar abilene_network.content_distribution 	repo-7_card 	937
scalar abilene_network.content_distribution 	repo-7_price 	0
scalar abilene_network.content_distribution 	repo-8_card 	890
scalar abilene_network.content_distribution 	repo-8_price 	0
scalar abilene_network.content_distribution 	repo-9_card 	891
scalar abilene_network.content_distribution 	repo-9_price 	0
scalar abilene_network.content_distribution 	repo-10_card 	917
scalar abilene_network.content_distribution 	repo-10_price 	0
scalar abilene_network.statistics 	stabilization_time 	203.2
scalar abilene_network.statistics 	p_hit 	0.22580291810893
scalar abilene_network.statistics 	interests 	4149.6363636364
scalar abilene_network.statistics 	data 	2348.4545454545
scalar abilene_network.statistics 	hdistance 	1.7852163631555
scalar abilene_network.statistics 	avg_time 	0.008411684627
scalar abilene_network.statistics 	downloads 	19813
scalar abilene_network.statistics 	total_cost 	0
scalar abilene_network.statistics 	total_replicas 	10000
scalar abilene_network.statistics 	inner_hit 	0.52021400090849
scalar abilene_network.statistics 	interests_sent 	19813
scalar abilene_network.node[0].core_layer 	interests[0] 	2734
scalar abilene_network.node[0].core_layer 	repo_load[0] 	800
scalar abilene_network.node[0].core_layer 	data[0] 	1033
scalar abilene_network.node[0].core_layer 	repo_int[0] 	9506
scalar abilene_network.node[0].content_store 	p_hit[0] 	0.32955376737381
scalar abilene_network.node[0].content_store 	hits[0] 	901
scalar abilene_network.node[0].content_store 	misses[0] 	1833
scalar abilene_network.node[0].content_store 	decision_yes[0] 	1833
scalar abilene_network.node[0].content_store 	decision_no[0] 	0
scalar abilene_network.node[0].content_store 	decision_ratio[0] 	1
scalar abilene_network.node[1].core_layer 	interests[1] 	4662
scalar abilene_network.node[1].core_layer 	repo_load[1] 	829
scalar abilene_network.node[1].core_layer 	data[1] 	2993
scalar abilene_network.node[1].content_store 	p_hit[1] 	0.18018018018018
scalar abilene_network.node[1].content_store 	hits[1] 	840
scalar abilene_network.node[1].content_store 	misses[1] 	3822
scalar abilene_network.node[1].content_store 	decision_yes[1] 	3822
scalar abilene_network.node[1].content_store 	decision_no[1] 	0
scalar abilene_network.node[1].content_store 	decision_ratio[1] 	1
scalar abilene_network.node[2].core_layer 	interests[2] 	6188
scalar abilene_network.node[2].core_layer 	repo_load[2] 	1074
scalar abilene_network.node[2].core_layer 	data[2] 	4231
scalar abilene_network.node[2].content_store 	p_hit[2] 	0.14269553975436
scalar abilene_network.node[2].content_store 	hits[2] 	883
scalar abilene_network.node[2].content_store 	misses[2] 	5305
scalar abilene_network.node[2].content_store 	decision_yes[2] 	5305
scalar abilene_network.node[2].content_store 	decision_no[2] 	0
scalar abilene_network.node[2].content_store 	decision_ratio[2] 	1
scalar abilene_network.node[3].core_layer 	interests[3] 	5764
scalar abilene_network.node[3].core_layer 	repo_load[3] 	909
scalar abilene_network.node[3].core_layer 	data[3] 	4021
scalar abilene_network.node[3].content_store 	p_hit[3] 	0.14469118667592
scalar abilene_network.node[3].content_store 	hits[3] 	834
scalar abilene_network.node[3].content_store 	misses[3] 	4930
scalar abilene_network.node[3].content_store 	decision_yes[3] 	4930
scalar abilene_network.node[3].content_store 	decision_no[3] 	0
scalar abilene_network.node[3].content_store 	decision_ratio[3] 	1
scalar abilene_network.node[4].core_layer 	interests[4] 	3740
scalar abilene_network.node[4].core_layer 	repo_load[4] 	791
scalar abilene_network.node[4].core_layer 	data[4] 	1987
scalar abilene_network.node[4].content_store 	p_hit[4] 	0.2572192513369
scalar abilene_network.node[4].content_store 	hits[4] 	962
scalar abilene_network.node[4].content_store 	misses[4] 	2778
scalar abilene_network.node[4].content_store 	decision_yes[4] 	2778
scalar abilene_network.node[4].content_store 	decision_no[4] 	0
scalar abilene_network.node[4].content_store 	decision_ratio[4] 	1
scalar abilene_network.node[5].core_layer 	interests[5] 	3075
scalar abilene_network.node[5].core_layer 	repo_load[5] 	904
scalar abilene_network.node[5].core_layer 	data[5] 	1266
scalar abilene_network.node[5].content_store 	p_hit[5] 	0.29430894308943
scalar abilene_network.node[5].content_store 	hits[5] 	905
scalar abilene_network.node[5].content_store 	misses[5] 	2170
scalar abilene_network.node[5].content_store 	decision_yes[5] 	2170
scalar abilene_network.node[5].content_store 	decision_no[5] 	0
scalar abilene_network.node[5].content_store 	decision_ratio[5] 	1
scalar abilene_network.node[6].core_layer 	interests[6] 	3474
scalar abilene_network.node[6].core_layer 	repo_load[6] 	891
scalar abilene_network.node[6].core_layer 	data[6] 	1662
scalar abilene_network.node[6].content_store 	p_hit[6] 	0.26511226252159
scalar abilene_network.node[6].content_store 	hits[6] 	921
scalar abilene_network.node[6].content_store 	misses[6] 	2553
scalar abilene_network.node[6].content_store 	decision_yes[6] 	2553
scalar abilene_network.node[6].content_store 	decision_no[6] 	0
scalar abilene_network.node[6].content_store 	decision_ratio[6] 	1
scalar abilene_network.node[7].core_layer 	interests[7] 	4579
scalar abilene_network.node[7].core_layer 	repo_load[7] 	833
scalar abilene_network.node[7].core_layer 	data[7] 	2763
scalar abilene_network.node[7].content_store 	p_hit[7] 	0.21467569338283
scalar abilene_network.node[7].content_store 	hits[7] 	983
scalar abilene_network.node[7].content_store 	misses[7] 	3596
scalar abilene_network.node[7].content_store 	decision_yes[7] 	3596
scalar abilene_network.node[7].content_store 	decision_no[7] 	0
scalar abilene_network.node[7].content_store 	decision_ratio[7] 	1
scalar abilene_network.node[8].core_layer 	interests[8] 	4546
scalar abilene_network.node[8].core_layer 	repo_load[8] 	798
scalar abilene_network.node[8].core_layer 	data[8] 	2649
scalar abilene_network.node[8].content_store 	p_hit[8] 	0.24175098988121
scalar abilene_network.node[8].content_store 	hits[8] 	1099
scalar abilene_network.node[8].content_store 	misses[8] 	3447
scalar abilene_network.node[8].content_store 	decision_yes[8] 	3447
scalar abilene_network.node[8].content_store 	decision_no[8] 	0
scalar abilene_network.node[8].content_store 	decision_ratio[8] 	1
scalar abilene_network.node[9].core_layer 	interests[9] 	3484
scalar abilene_network.node[9].core_layer 	repo_load[9] 	865
scalar abilene_network.node[9].core_layer 	data[9] 	1700
scalar abilene_network.node[9].content_store 	p_hit[9] 	0.26377726750861
scalar abilene_network.node[9].content_store 	hits[9] 	919
scalar abilene_network.node[9].content_store 	misses[9] 	2565
scalar abilene_network.node[9].content_store 	decision_yes[9] 	2565
scalar abilene_network.node[9].content_store 	decision_no[9] 	0
scalar abilene_network.node[9].content_store 	decision_ratio[9] 	1
scalar abilene_network.node[10].core_layer 	interests[10] 	3400
scalar abilene_network.node[10].core_layer 	repo_load[10] 	812
scalar abilene_network.node[10].core_layer 	data[10] 	1528
scalar abilene_network.node[10].content_store 	p_hit[10] 	0.31176470588235
scalar abilene_network.node[10].content_store 	hits[10] 	1060
scalar abilene_network.node[10].content_store 	misses[10] 	2340
scalar abilene_network.node[10].content_store 	decision_yes[10] 	2340
scalar abilene_network.node[10].content_store 	decision_no[10] 	0
scalar abilene_network.node[10].content_store 	decision_ratio[10] 	1
scalar abilene_network.client[0] 	hdistance[0] 	2.11641443539
scalar abilene_network.client[0] 	downloads[0] 	1718
scalar abilene_network.client[0] 	avg_time[0] 	0.011324993755
scalar abilene_network.client[0] 	interests_sent[0] 	1718
scalar abilene_network.client[1] 	hdistance[1] 	1.6991404011461
scalar abilene_network.client[1] 	downloads[1] 	1745
scalar abilene_network.client[1] 	avg_time[1] 	0.007813019621
scalar abilene_network.client[1] 	interests_sent[1] 	1745
scalar abilene_network.client[2] 	hdistance[2] 	1.5352581898945
scalar abilene_network.client[2] 	downloads[2] 	1801
scalar abilene_network.client[2] 	avg_time[2] 	0.00653421387
scalar abilene_network.client[2] 	interests_sent[2] 	1801
scalar abilene_network.client[3] 	hdistance[3] 	1.6349916154276
scalar abilene_network.client[3] 	downloads[3] 	1789
scalar abilene_network.client[3] 	avg_time[3] 	0.006597048188
scalar abilene_network.client[3] 	interests_sent[3] 	1789
scalar abilene_network.client[4] 	hdistance[4] 	1.8931462493254
scalar abilene_network.client[4] 	downloads[4] 	1853
scalar abilene_network.client[4] 	avg_time[4] 	0.00695895259
scalar abilene_network.client[4] 	interests_sent[4] 	1853
scalar abilene_network.client[5] 	hdistance[5] 	2.0045095828636
scalar abilene_network.client[5] 	downloads[5] 	1774
scalar abilene_network.client[5] 	avg_time[5] 	0.008496425708
scalar abilene_network.client[5] 	interests_sent[5] 	1774
scalar abilene_network.client[6] 	hdistance[6] 	1.8756302521008
scalar abilene_network.client[6] 	downloads[6] 	1785
scalar abilene_network.client[6] 	avg_time[6] 	0.008628234854
scalar abilene_network.client[6] 	interests_sent[6] 	1785
scalar abilene_network.client[7] 	hdistance[7] 	1.6232954545455
scalar abilene_network.client[7] 	downloads[7] 	1760
scalar abilene_network.client[7] 	avg_time[7] 	0.007166624569
scalar abilene_network.client[7] 	interests_sent[7] 	1760
scalar abilene_network.client[8] 	hdistance[8] 	1.5700687466949
scalar abilene_network.client[8] 	downloads[8] 	1891
scalar abilene_network.client[8] 	avg_time[8] 	0.007902305187
scalar abilene_network.client[8] 	interests_sent[8] 	1891
scalar abilene_network.client[9] 	hdistance[9] 	1.8087606837607
scalar abilene_network.client[9] 	downloads[9] 	1872
scalar abilene_network.client[9] 	avg_time[9] 	0.01112697602
scalar abilene_network.client[9] 	interests_sent[9] 	1872
scalar abilene_network.client[10] 	hdistance[10] 	1.8761643835616
scalar abilene_network.client[10] 	downloads[10] 	1825
scalar abilene_network.client[10] 	avg_time[10] 	0.009979736537
scalar abilene_network.client[10] 	interests_sent[10] 	1825
