version 2
run General-62-20140708-18:52:39-17297
attr D costprobtailcons
attr F nrr
attr R lru
attr a 1
attr configname General
attr csize 1e3
attr ctlg 1e5
attr datetime 20140708-18:52:39
attr experiment General
attr inifile omnetpp.ini
attr iterationvars "$net=geant_cost, $rep=12, $priceratiovalue=10, $weights=0.333_0.333_0.334, $lambda=100, $a=1, $ctlg=1e5, $F=nrr, $ttl=1000, $D=costprobtailcons, $xi=1, $R=lru, $csize=1e3, $pricebits=0, $window=60, $variance=0.05, $mytime=1800"
attr iterationvars2 "$net=geant_cost, $rep=12, $priceratiovalue=10, $weights=0.333_0.333_0.334, $lambda=100, $a=1, $ctlg=1e5, $F=nrr, $ttl=1000, $D=costprobtailcons, $xi=1, $R=lru, $csize=1e3, $pricebits=0, $window=60, $variance=0.05, $mytime=1800, $repetition=0"
attr lambda 100
attr measurement "$net=geant_cost, $rep=12, $priceratiovalue=10, $weights=0.333_0.333_0.334, $lambda=100, $a=1, $ctlg=1e5, $F=nrr, $ttl=1000, $D=costprobtailcons, $xi=1, $R=lru, $csize=1e3, $pricebits=0, $window=60, $variance=0.05, $mytime=1800"
attr mytime 1800
attr net geant_cost
attr network "networks.${net=abilene_cost, geant_cost}_network"
attr pricebits 0
attr priceratiovalue 10
attr processid 17297
attr rep 12
attr repetition 0
attr replication #0
attr resultdir results
attr runnumber 62
attr seedset 12
attr ttl 1000
attr variance 0.05
attr weights 0.333_0.333_0.334
attr window 60
attr xi 1

scalar . 	a 	1
scalar . 	csize 	1e3
scalar . 	ctlg 	1e5
scalar . 	lambda 	100
scalar . 	mytime 	1800
scalar . 	pricebits 	0
scalar . 	priceratiovalue 	10
scalar . 	rep 	12
scalar . 	ttl 	1000
scalar . 	variance 	0.05
scalar . 	window 	60
scalar . 	xi 	1
scalar geant_cost_network.content_distribution 	repo-0 	22
scalar geant_cost_network.content_distribution 	repo-1 	23
scalar geant_cost_network.content_distribution 	repo-2 	24
scalar geant_cost_network.content_distribution 	client-0 	20
scalar geant_cost_network.content_distribution 	client-1 	10
scalar geant_cost_network.content_distribution 	client-2 	12
scalar geant_cost_network.content_distribution 	client-3 	9
scalar geant_cost_network.content_distribution 	client-4 	5
scalar geant_cost_network.content_distribution 	repo-0_card 	33376
scalar geant_cost_network.content_distribution 	repo-1_card 	33439
scalar geant_cost_network.content_distribution 	repo-2_card 	33185
scalar geant_cost_network.statistics 	repo_popularity[0] 	0.3146103286495
scalar geant_cost_network.statistics 	repo_popularity[1] 	0.33182472258399
scalar geant_cost_network.statistics 	repo_popularity[2] 	0.35356494876651
scalar geant_cost_network.statistics 	stabilization_time 	36060
scalar geant_cost_network.node[7].face$o[4].channel 	price[7] 	0
scalar geant_cost_network.node[7].face$o[4].channel 	represented_price[7] 	0
scalar geant_cost_network.node[8].face$o[3].channel 	price[8] 	0
scalar geant_cost_network.node[8].face$o[3].channel 	represented_price[8] 	0
scalar geant_cost_network.node[21].face$o[5].channel 	price[21] 	0
scalar geant_cost_network.node[21].face$o[5].channel 	represented_price[21] 	0
scalar geant_cost_network.node[22].face$o[1].channel 	price[22] 	0
scalar geant_cost_network.node[22].face$o[1].channel 	represented_price[22] 	0
scalar geant_cost_network.node[23].face$o[1].channel 	price[23] 	1
scalar geant_cost_network.node[23].face$o[1].channel 	represented_price[23] 	1
scalar geant_cost_network.node[24].face$o[1].channel 	price[24] 	10
scalar geant_cost_network.node[24].face$o[1].channel 	represented_price[24] 	10
scalar geant_cost_network.statistics 	p_hit 	0.095284814445861
scalar geant_cost_network.statistics 	interests 	143308.04
scalar geant_cost_network.statistics 	data 	107366.8
scalar geant_cost_network.statistics 	hdistance 	3.6410228895272
scalar geant_cost_network.statistics 	avg_time 	0.007042258602
scalar geant_cost_network.statistics 	downloads 	891938
scalar geant_cost_network.statistics 	total_cost 	1374533
scalar geant_cost_network.statistics 	total_replicas 	100000
scalar geant_cost_network.statistics 	inner_hit 	0.38900237460451
scalar geant_cost_network.statistics 	interests_sent 	898533
scalar geant_cost_network.node[0].core_layer 	interests[0] 	0
scalar geant_cost_network.node[0].core_layer 	data[0] 	0
scalar geant_cost_network.node[0].core_layer 	repo_int[0] 	544972
scalar geant_cost_network.node[0].content_store 	p_hit[0] 	-nan
scalar geant_cost_network.node[0].content_store 	hits[0] 	0
scalar geant_cost_network.node[0].content_store 	misses[0] 	0
scalar geant_cost_network.node[0].content_store 	decision_yes[0] 	0
scalar geant_cost_network.node[0].content_store 	decision_no[0] 	0
scalar geant_cost_network.node[0].content_store 	decision_ratio[0] 	0
scalar geant_cost_network.node[0].content_store 	correction_factor[0] 	9.4683926126567e-317
scalar geant_cost_network.node[0].content_store 	xi[0] 	1
scalar geant_cost_network.node[1].core_layer 	interests[1] 	0
scalar geant_cost_network.node[1].core_layer 	data[1] 	0
scalar geant_cost_network.node[1].content_store 	p_hit[1] 	-nan
scalar geant_cost_network.node[1].content_store 	hits[1] 	0
scalar geant_cost_network.node[1].content_store 	misses[1] 	0
scalar geant_cost_network.node[1].content_store 	decision_yes[1] 	0
scalar geant_cost_network.node[1].content_store 	decision_no[1] 	0
scalar geant_cost_network.node[1].content_store 	decision_ratio[1] 	0
scalar geant_cost_network.node[1].content_store 	correction_factor[1] 	9.4847995446237e-317
scalar geant_cost_network.node[1].content_store 	xi[1] 	1
scalar geant_cost_network.node[2].core_layer 	interests[2] 	0
scalar geant_cost_network.node[2].core_layer 	data[2] 	0
scalar geant_cost_network.node[2].content_store 	p_hit[2] 	-nan
scalar geant_cost_network.node[2].content_store 	hits[2] 	0
scalar geant_cost_network.node[2].content_store 	misses[2] 	0
scalar geant_cost_network.node[2].content_store 	decision_yes[2] 	0
scalar geant_cost_network.node[2].content_store 	decision_no[2] 	0
scalar geant_cost_network.node[2].content_store 	decision_ratio[2] 	0
scalar geant_cost_network.node[2].content_store 	correction_factor[2] 	9.4874161162841e-317
scalar geant_cost_network.node[2].content_store 	xi[2] 	1
scalar geant_cost_network.node[3].core_layer 	interests[3] 	231984
scalar geant_cost_network.node[3].core_layer 	data[3] 	214708
scalar geant_cost_network.node[3].content_store 	p_hit[3] 	0.074462031864267
scalar geant_cost_network.node[3].content_store 	hits[3] 	17274
scalar geant_cost_network.node[3].content_store 	misses[3] 	214710
scalar geant_cost_network.node[3].content_store 	decision_yes[3] 	0
scalar geant_cost_network.node[3].content_store 	decision_no[3] 	214708
scalar geant_cost_network.node[3].content_store 	decision_ratio[3] 	0
scalar geant_cost_network.node[3].content_store 	correction_factor[3] 	9.46776020863e-317
scalar geant_cost_network.node[3].content_store 	xi[3] 	1
scalar geant_cost_network.node[4].core_layer 	interests[4] 	303407
scalar geant_cost_network.node[4].core_layer 	data[4] 	299191
scalar geant_cost_network.node[4].content_store 	p_hit[4] 	0.013414324653024
scalar geant_cost_network.node[4].content_store 	hits[4] 	4070
scalar geant_cost_network.node[4].content_store 	misses[4] 	299337
scalar geant_cost_network.node[4].content_store 	decision_yes[4] 	0
scalar geant_cost_network.node[4].content_store 	decision_no[4] 	299191
scalar geant_cost_network.node[4].content_store 	decision_ratio[4] 	0
scalar geant_cost_network.node[4].content_store 	correction_factor[4] 	9.4930524171719e-317
scalar geant_cost_network.node[4].content_store 	xi[4] 	1
scalar geant_cost_network.node[5].core_layer 	interests[5] 	194057
scalar geant_cost_network.node[5].core_layer 	data[5] 	172942
scalar geant_cost_network.node[5].content_store 	p_hit[5] 	0.098733877159804
scalar geant_cost_network.node[5].content_store 	hits[5] 	19160
scalar geant_cost_network.node[5].content_store 	misses[5] 	174897
scalar geant_cost_network.node[5].content_store 	decision_yes[5] 	0
scalar geant_cost_network.node[5].content_store 	decision_no[5] 	172942
scalar geant_cost_network.node[5].content_store 	decision_ratio[5] 	0
scalar geant_cost_network.node[5].content_store 	correction_factor[5] 	9.4957796595369e-317
scalar geant_cost_network.node[5].content_store 	xi[5] 	1
scalar geant_cost_network.node[6].core_layer 	interests[6] 	103789
scalar geant_cost_network.node[6].core_layer 	data[6] 	97912
scalar geant_cost_network.node[6].content_store 	p_hit[6] 	0.056624497779148
scalar geant_cost_network.node[6].content_store 	hits[6] 	5877
scalar geant_cost_network.node[6].content_store 	misses[6] 	97912
scalar geant_cost_network.node[6].content_store 	decision_yes[6] 	0
scalar geant_cost_network.node[6].content_store 	decision_no[6] 	97912
scalar geant_cost_network.node[6].content_store 	decision_ratio[6] 	0
scalar geant_cost_network.node[6].content_store 	correction_factor[6] 	9.498483186751e-317
scalar geant_cost_network.node[6].content_store 	xi[6] 	1
scalar geant_cost_network.node[7].core_layer 	interests[7] 	387193
scalar geant_cost_network.node[7].core_layer 	data[7] 	368785
scalar geant_cost_network.node[7].content_store 	p_hit[7] 	0.047418212622646
scalar geant_cost_network.node[7].content_store 	hits[7] 	18360
scalar geant_cost_network.node[7].content_store 	misses[7] 	368833
scalar geant_cost_network.node[7].content_store 	decision_yes[7] 	1
scalar geant_cost_network.node[7].content_store 	decision_no[7] 	368784
scalar geant_cost_network.node[7].content_store 	decision_ratio[7] 	2.7116070339086e-06
scalar geant_cost_network.node[7].content_store 	correction_factor[7] 	9.5011550937637e-317
scalar geant_cost_network.node[7].content_store 	xi[7] 	1
scalar geant_cost_network.node[8].core_layer 	interests[8] 	321941
scalar geant_cost_network.node[8].core_layer 	data[8] 	266131
scalar geant_cost_network.node[8].content_store 	p_hit[8] 	0.1733516389649
scalar geant_cost_network.node[8].content_store 	hits[8] 	55809
scalar geant_cost_network.node[8].content_store 	misses[8] 	266132
scalar geant_cost_network.node[8].content_store 	decision_yes[8] 	2
scalar geant_cost_network.node[8].content_store 	decision_no[8] 	266129
scalar geant_cost_network.node[8].content_store 	decision_ratio[8] 	7.5150959489875e-06
scalar geant_cost_network.node[8].content_store 	correction_factor[8] 	9.5039297664307e-317
scalar geant_cost_network.node[8].content_store 	xi[8] 	1
scalar geant_cost_network.node[9].core_layer 	interests[9] 	412692
scalar geant_cost_network.node[9].core_layer 	data[9] 	353691
scalar geant_cost_network.node[9].content_store 	p_hit[9] 	0.13452889806442
scalar geant_cost_network.node[9].content_store 	hits[9] 	55519
scalar geant_cost_network.node[9].content_store 	misses[9] 	357173
scalar geant_cost_network.node[9].content_store 	decision_yes[9] 	0
scalar geant_cost_network.node[9].content_store 	decision_no[9] 	353691
scalar geant_cost_network.node[9].content_store 	decision_ratio[9] 	0
scalar geant_cost_network.node[9].content_store 	correction_factor[9] 	9.4867402344806e-317
scalar geant_cost_network.node[9].content_store 	xi[9] 	1
scalar geant_cost_network.node[10].core_layer 	interests[10] 	185747
scalar geant_cost_network.node[10].core_layer 	data[10] 	169126
scalar geant_cost_network.node[10].content_store 	p_hit[10] 	0.081341825170797
scalar geant_cost_network.node[10].content_store 	hits[10] 	15109
scalar geant_cost_network.node[10].content_store 	misses[10] 	170638
scalar geant_cost_network.node[10].content_store 	decision_yes[10] 	4
scalar geant_cost_network.node[10].content_store 	decision_no[10] 	169122
scalar geant_cost_network.node[10].content_store 	decision_ratio[10] 	2.365100575902e-05
scalar geant_cost_network.node[10].content_store 	correction_factor[10] 	9.4936571535224e-317
scalar geant_cost_network.node[10].content_store 	xi[10] 	1
scalar geant_cost_network.node[11].core_layer 	interests[11] 	0
scalar geant_cost_network.node[11].core_layer 	data[11] 	0
scalar geant_cost_network.node[11].content_store 	p_hit[11] 	-nan
scalar geant_cost_network.node[11].content_store 	hits[11] 	0
scalar geant_cost_network.node[11].content_store 	misses[11] 	0
scalar geant_cost_network.node[11].content_store 	decision_yes[11] 	0
scalar geant_cost_network.node[11].content_store 	decision_no[11] 	0
scalar geant_cost_network.node[11].content_store 	decision_ratio[11] 	0
scalar geant_cost_network.node[11].content_store 	correction_factor[11] 	9.4867402344806e-317
scalar geant_cost_network.node[11].content_store 	xi[11] 	1
scalar geant_cost_network.node[12].core_layer 	interests[12] 	302929
scalar geant_cost_network.node[12].core_layer 	data[12] 	277791
scalar geant_cost_network.node[12].content_store 	p_hit[12] 	0.068679459543325
scalar geant_cost_network.node[12].content_store 	hits[12] 	20805
scalar geant_cost_network.node[12].content_store 	misses[12] 	282124
scalar geant_cost_network.node[12].content_store 	decision_yes[12] 	0
scalar geant_cost_network.node[12].content_store 	decision_no[12] 	277791
scalar geant_cost_network.node[12].content_store 	decision_ratio[12] 	0
scalar geant_cost_network.node[12].content_store 	correction_factor[12] 	9.4936571535224e-317
scalar geant_cost_network.node[12].content_store 	xi[12] 	1
scalar geant_cost_network.node[13].core_layer 	interests[13] 	9209
scalar geant_cost_network.node[13].core_layer 	data[13] 	9209
scalar geant_cost_network.node[13].content_store 	p_hit[13] 	0
scalar geant_cost_network.node[13].content_store 	hits[13] 	0
scalar geant_cost_network.node[13].content_store 	misses[13] 	9209
scalar geant_cost_network.node[13].content_store 	decision_yes[13] 	0
scalar geant_cost_network.node[13].content_store 	decision_no[13] 	9209
scalar geant_cost_network.node[13].content_store 	decision_ratio[13] 	0
scalar geant_cost_network.node[13].content_store 	correction_factor[13] 	9.4936571535224e-317
scalar geant_cost_network.node[13].content_store 	xi[13] 	1
scalar geant_cost_network.node[14].core_layer 	interests[14] 	65023
scalar geant_cost_network.node[14].core_layer 	data[14] 	51391
scalar geant_cost_network.node[14].content_store 	p_hit[14] 	0.20966427264199
scalar geant_cost_network.node[14].content_store 	hits[14] 	13633
scalar geant_cost_network.node[14].content_store 	misses[14] 	51390
scalar geant_cost_network.node[14].content_store 	decision_yes[14] 	0
scalar geant_cost_network.node[14].content_store 	decision_no[14] 	51391
scalar geant_cost_network.node[14].content_store 	decision_ratio[14] 	0
scalar geant_cost_network.node[14].content_store 	correction_factor[14] 	9.4936571535224e-317
scalar geant_cost_network.node[14].content_store 	xi[14] 	1
scalar geant_cost_network.node[15].core_layer 	interests[15] 	0
scalar geant_cost_network.node[15].core_layer 	data[15] 	0
scalar geant_cost_network.node[15].content_store 	p_hit[15] 	-nan
scalar geant_cost_network.node[15].content_store 	hits[15] 	0
scalar geant_cost_network.node[15].content_store 	misses[15] 	0
scalar geant_cost_network.node[15].content_store 	decision_yes[15] 	0
scalar geant_cost_network.node[15].content_store 	decision_no[15] 	0
scalar geant_cost_network.node[15].content_store 	decision_ratio[15] 	0
scalar geant_cost_network.node[15].content_store 	correction_factor[15] 	9.4936571535224e-317
scalar geant_cost_network.node[15].content_store 	xi[15] 	1
scalar geant_cost_network.node[16].core_layer 	interests[16] 	0
scalar geant_cost_network.node[16].core_layer 	data[16] 	0
scalar geant_cost_network.node[16].content_store 	p_hit[16] 	-nan
scalar geant_cost_network.node[16].content_store 	hits[16] 	0
scalar geant_cost_network.node[16].content_store 	misses[16] 	0
scalar geant_cost_network.node[16].content_store 	decision_yes[16] 	0
scalar geant_cost_network.node[16].content_store 	decision_no[16] 	0
scalar geant_cost_network.node[16].content_store 	decision_ratio[16] 	0
scalar geant_cost_network.node[16].content_store 	correction_factor[16] 	9.4738233822357e-317
scalar geant_cost_network.node[16].content_store 	xi[16] 	1
scalar geant_cost_network.node[17].core_layer 	interests[17] 	0
scalar geant_cost_network.node[17].core_layer 	data[17] 	0
scalar geant_cost_network.node[17].content_store 	p_hit[17] 	-nan
scalar geant_cost_network.node[17].content_store 	hits[17] 	0
scalar geant_cost_network.node[17].content_store 	misses[17] 	0
scalar geant_cost_network.node[17].content_store 	decision_yes[17] 	0
scalar geant_cost_network.node[17].content_store 	decision_no[17] 	0
scalar geant_cost_network.node[17].content_store 	decision_ratio[17] 	0
scalar geant_cost_network.node[17].content_store 	correction_factor[17] 	9.4741395842491e-317
scalar geant_cost_network.node[17].content_store 	xi[17] 	1
scalar geant_cost_network.node[18].core_layer 	interests[18] 	132206
scalar geant_cost_network.node[18].core_layer 	data[18] 	123585
scalar geant_cost_network.node[18].content_store 	p_hit[18] 	0.065216404701753
scalar geant_cost_network.node[18].content_store 	hits[18] 	8622
scalar geant_cost_network.node[18].content_store 	misses[18] 	123584
scalar geant_cost_network.node[18].content_store 	decision_yes[18] 	3
scalar geant_cost_network.node[18].content_store 	decision_no[18] 	123582
scalar geant_cost_network.node[18].content_store 	decision_ratio[18] 	2.4274790629931e-05
scalar geant_cost_network.node[18].content_store 	correction_factor[18] 	9.5105818662863e-317
scalar geant_cost_network.node[18].content_store 	xi[18] 	1
scalar geant_cost_network.node[19].core_layer 	interests[19] 	0
scalar geant_cost_network.node[19].core_layer 	data[19] 	0
scalar geant_cost_network.node[19].content_store 	p_hit[19] 	-nan
scalar geant_cost_network.node[19].content_store 	hits[19] 	0
scalar geant_cost_network.node[19].content_store 	misses[19] 	0
scalar geant_cost_network.node[19].content_store 	decision_yes[19] 	0
scalar geant_cost_network.node[19].content_store 	decision_no[19] 	0
scalar geant_cost_network.node[19].content_store 	decision_ratio[19] 	0
scalar geant_cost_network.node[19].content_store 	correction_factor[19] 	9.4948508161227e-317
scalar geant_cost_network.node[19].content_store 	xi[19] 	1
scalar geant_cost_network.node[20].core_layer 	interests[20] 	185062
scalar geant_cost_network.node[20].core_layer 	data[20] 	156300
scalar geant_cost_network.node[20].content_store 	p_hit[20] 	0.15160865007403
scalar geant_cost_network.node[20].content_store 	hits[20] 	28057
scalar geant_cost_network.node[20].content_store 	misses[20] 	157005
scalar geant_cost_network.node[20].content_store 	decision_yes[20] 	0
scalar geant_cost_network.node[20].content_store 	decision_no[20] 	156300
scalar geant_cost_network.node[20].content_store 	decision_ratio[20] 	0
scalar geant_cost_network.node[20].content_store 	correction_factor[20] 	9.5267714093693e-317
scalar geant_cost_network.node[20].content_store 	xi[20] 	1
scalar geant_cost_network.node[21].core_layer 	interests[21] 	202490
scalar geant_cost_network.node[21].core_layer 	data[21] 	123408
scalar geant_cost_network.node[21].content_store 	p_hit[21] 	0.39054768136698
scalar geant_cost_network.node[21].content_store 	hits[21] 	79082
scalar geant_cost_network.node[21].content_store 	misses[21] 	123408
scalar geant_cost_network.node[21].content_store 	decision_yes[21] 	0
scalar geant_cost_network.node[21].content_store 	decision_no[21] 	123408
scalar geant_cost_network.node[21].content_store 	decision_ratio[21] 	0
scalar geant_cost_network.node[21].content_store 	correction_factor[21] 	9.5270955164329e-317
scalar geant_cost_network.node[21].content_store 	xi[21] 	1
scalar geant_cost_network.node[22].core_layer 	interests[22] 	281111
scalar geant_cost_network.node[22].core_layer 	repo_load[22] 	281111
scalar geant_cost_network.node[22].core_layer 	data[22] 	0
scalar geant_cost_network.node[22].content_store 	p_hit[22] 	0
scalar geant_cost_network.node[22].content_store 	hits[22] 	0
scalar geant_cost_network.node[22].content_store 	misses[22] 	281111
scalar geant_cost_network.node[22].content_store 	decision_yes[22] 	0
scalar geant_cost_network.node[22].content_store 	decision_no[22] 	281111
scalar geant_cost_network.node[22].content_store 	decision_ratio[22] 	0
scalar geant_cost_network.node[23].core_layer 	interests[23] 	140453
scalar geant_cost_network.node[23].core_layer 	repo_load[23] 	140453
scalar geant_cost_network.node[23].core_layer 	data[23] 	0
scalar geant_cost_network.node[23].content_store 	p_hit[23] 	0
scalar geant_cost_network.node[23].content_store 	hits[23] 	0
scalar geant_cost_network.node[23].content_store 	misses[23] 	140453
scalar geant_cost_network.node[23].content_store 	decision_yes[23] 	0
scalar geant_cost_network.node[23].content_store 	decision_no[23] 	140453
scalar geant_cost_network.node[23].content_store 	decision_ratio[23] 	0
scalar geant_cost_network.node[24].core_layer 	interests[24] 	123408
scalar geant_cost_network.node[24].core_layer 	repo_load[24] 	123408
scalar geant_cost_network.node[24].core_layer 	data[24] 	0
scalar geant_cost_network.node[24].content_store 	p_hit[24] 	0
scalar geant_cost_network.node[24].content_store 	hits[24] 	0
scalar geant_cost_network.node[24].content_store 	misses[24] 	123408
scalar geant_cost_network.node[24].content_store 	decision_yes[24] 	0
scalar geant_cost_network.node[24].content_store 	decision_no[24] 	123408
scalar geant_cost_network.node[24].content_store 	decision_ratio[24] 	0
scalar geant_cost_network.client[5] 	hdistance[5] 	3.3544089528737
scalar geant_cost_network.client[5] 	downloads[5] 	177820
scalar geant_cost_network.client[5] 	avg_time[5] 	0.00965693303
scalar geant_cost_network.client[5] 	interests_sent[5] 	179775
scalar geant_cost_network.client[9] 	hdistance[9] 	3.3120199317361
scalar geant_cost_network.client[9] 	downloads[9] 	179011
scalar geant_cost_network.client[9] 	avg_time[9] 	0.005241455789
scalar geant_cost_network.client[9] 	interests_sent[9] 	180270
scalar geant_cost_network.client[10] 	hdistance[10] 	4.2417311929847
scalar geant_cost_network.client[10] 	downloads[10] 	178351
scalar geant_cost_network.client[10] 	avg_time[10] 	0.007101529781
scalar geant_cost_network.client[10] 	interests_sent[10] 	179863
scalar geant_cost_network.client[12] 	hdistance[12] 	3.6196465486248
scalar geant_cost_network.client[12] 	downloads[12] 	178016
scalar geant_cost_network.client[12] 	avg_time[12] 	0.006168316668
scalar geant_cost_network.client[12] 	interests_sent[12] 	179180
scalar geant_cost_network.client[20] 	hdistance[20] 	3.6773078214166
scalar geant_cost_network.client[20] 	downloads[20] 	178740
scalar geant_cost_network.client[20] 	avg_time[20] 	0.007043057742
scalar geant_cost_network.client[20] 	interests_sent[20] 	179445
