version 2
run General-58-20140708-18:28:59-17287
attr D costprobtailcons
attr F nrr
attr R lru
attr a 1
attr configname General
attr csize 1e3
attr ctlg 1e5
attr datetime 20140708-18:28:59
attr experiment General
attr inifile omnetpp.ini
attr iterationvars "$net=geant_cost, $rep=10, $priceratiovalue=10, $weights=0.333_0.333_0.334, $lambda=100, $a=1, $ctlg=1e5, $F=nrr, $ttl=1000, $D=costprobtailcons, $xi=1, $R=lru, $csize=1e3, $pricebits=0, $window=60, $variance=0.05, $mytime=1800"
attr iterationvars2 "$net=geant_cost, $rep=10, $priceratiovalue=10, $weights=0.333_0.333_0.334, $lambda=100, $a=1, $ctlg=1e5, $F=nrr, $ttl=1000, $D=costprobtailcons, $xi=1, $R=lru, $csize=1e3, $pricebits=0, $window=60, $variance=0.05, $mytime=1800, $repetition=0"
attr lambda 100
attr measurement "$net=geant_cost, $rep=10, $priceratiovalue=10, $weights=0.333_0.333_0.334, $lambda=100, $a=1, $ctlg=1e5, $F=nrr, $ttl=1000, $D=costprobtailcons, $xi=1, $R=lru, $csize=1e3, $pricebits=0, $window=60, $variance=0.05, $mytime=1800"
attr mytime 1800
attr net geant_cost
attr network "networks.${net=abilene_cost, geant_cost}_network"
attr pricebits 0
attr priceratiovalue 10
attr processid 17287
attr rep 10
attr repetition 0
attr replication #0
attr resultdir results
attr runnumber 58
attr seedset 10
attr ttl 1000
attr variance 0.05
attr weights 0.333_0.333_0.334
attr window 60
attr xi 1

scalar . 	a 	1
scalar . 	csize 	1e3
scalar . 	ctlg 	1e5
scalar . 	lambda 	100
scalar . 	mytime 	1800
scalar . 	pricebits 	0
scalar . 	priceratiovalue 	10
scalar . 	rep 	10
scalar . 	ttl 	1000
scalar . 	variance 	0.05
scalar . 	window 	60
scalar . 	xi 	1
scalar geant_cost_network.content_distribution 	repo-0 	22
scalar geant_cost_network.content_distribution 	repo-1 	23
scalar geant_cost_network.content_distribution 	repo-2 	24
scalar geant_cost_network.content_distribution 	client-0 	20
scalar geant_cost_network.content_distribution 	client-1 	10
scalar geant_cost_network.content_distribution 	client-2 	12
scalar geant_cost_network.content_distribution 	client-3 	9
scalar geant_cost_network.content_distribution 	client-4 	5
scalar geant_cost_network.content_distribution 	repo-0_card 	33053
scalar geant_cost_network.content_distribution 	repo-1_card 	33534
scalar geant_cost_network.content_distribution 	repo-2_card 	33413
scalar geant_cost_network.statistics 	repo_popularity[0] 	0.42335737931898
scalar geant_cost_network.statistics 	repo_popularity[1] 	0.27871951512344
scalar geant_cost_network.statistics 	repo_popularity[2] 	0.29792310555758
scalar geant_cost_network.statistics 	stabilization_time 	36060
scalar geant_cost_network.node[7].face$o[4].channel 	price[7] 	0
scalar geant_cost_network.node[7].face$o[4].channel 	represented_price[7] 	0
scalar geant_cost_network.node[8].face$o[3].channel 	price[8] 	0
scalar geant_cost_network.node[8].face$o[3].channel 	represented_price[8] 	0
scalar geant_cost_network.node[21].face$o[5].channel 	price[21] 	0
scalar geant_cost_network.node[21].face$o[5].channel 	represented_price[21] 	0
scalar geant_cost_network.node[22].face$o[1].channel 	price[22] 	0
scalar geant_cost_network.node[22].face$o[1].channel 	represented_price[22] 	0
scalar geant_cost_network.node[23].face$o[1].channel 	price[23] 	1
scalar geant_cost_network.node[23].face$o[1].channel 	represented_price[23] 	1
scalar geant_cost_network.node[24].face$o[1].channel 	price[24] 	10
scalar geant_cost_network.node[24].face$o[1].channel 	represented_price[24] 	10
scalar geant_cost_network.statistics 	p_hit 	0.067935213920333
scalar geant_cost_network.statistics 	interests 	146922.92
scalar geant_cost_network.statistics 	data 	110935.12
scalar geant_cost_network.statistics 	hdistance 	3.8386222348084
scalar geant_cost_network.statistics 	avg_time 	0.00745835013
scalar geant_cost_network.statistics 	downloads 	892228
scalar geant_cost_network.statistics 	total_cost 	1371209
scalar geant_cost_network.statistics 	total_replicas 	100000
scalar geant_cost_network.statistics 	inner_hit 	0.28507735690877
scalar geant_cost_network.statistics 	interests_sent 	899690
scalar geant_cost_network.node[0].core_layer 	interests[0] 	0
scalar geant_cost_network.node[0].core_layer 	data[0] 	0
scalar geant_cost_network.node[0].core_layer 	repo_int[0] 	637874
scalar geant_cost_network.node[0].content_store 	p_hit[0] 	-nan
scalar geant_cost_network.node[0].content_store 	hits[0] 	0
scalar geant_cost_network.node[0].content_store 	misses[0] 	0
scalar geant_cost_network.node[0].content_store 	decision_yes[0] 	0
scalar geant_cost_network.node[0].content_store 	decision_no[0] 	0
scalar geant_cost_network.node[0].content_store 	decision_ratio[0] 	0
scalar geant_cost_network.node[0].content_store 	correction_factor[0] 	8.5638018928982e-317
scalar geant_cost_network.node[0].content_store 	xi[0] 	1
scalar geant_cost_network.node[1].core_layer 	interests[1] 	0
scalar geant_cost_network.node[1].core_layer 	data[1] 	0
scalar geant_cost_network.node[1].content_store 	p_hit[1] 	-nan
scalar geant_cost_network.node[1].content_store 	hits[1] 	0
scalar geant_cost_network.node[1].content_store 	misses[1] 	0
scalar geant_cost_network.node[1].content_store 	decision_yes[1] 	0
scalar geant_cost_network.node[1].content_store 	decision_no[1] 	0
scalar geant_cost_network.node[1].content_store 	decision_ratio[1] 	0
scalar geant_cost_network.node[1].content_store 	correction_factor[1] 	8.5802088248653e-317
scalar geant_cost_network.node[1].content_store 	xi[1] 	1
scalar geant_cost_network.node[2].core_layer 	interests[2] 	0
scalar geant_cost_network.node[2].core_layer 	data[2] 	0
scalar geant_cost_network.node[2].content_store 	p_hit[2] 	-nan
scalar geant_cost_network.node[2].content_store 	hits[2] 	0
scalar geant_cost_network.node[2].content_store 	misses[2] 	0
scalar geant_cost_network.node[2].content_store 	decision_yes[2] 	0
scalar geant_cost_network.node[2].content_store 	decision_no[2] 	0
scalar geant_cost_network.node[2].content_store 	decision_ratio[2] 	0
scalar geant_cost_network.node[2].content_store 	correction_factor[2] 	8.5828253965256e-317
scalar geant_cost_network.node[2].content_store 	xi[2] 	1
scalar geant_cost_network.node[3].core_layer 	interests[3] 	213818
scalar geant_cost_network.node[3].core_layer 	data[3] 	197472
scalar geant_cost_network.node[3].content_store 	p_hit[3] 	0.076424809885042
scalar geant_cost_network.node[3].content_store 	hits[3] 	16341
scalar geant_cost_network.node[3].content_store 	misses[3] 	197477
scalar geant_cost_network.node[3].content_store 	decision_yes[3] 	0
scalar geant_cost_network.node[3].content_store 	decision_no[3] 	197472
scalar geant_cost_network.node[3].content_store 	decision_ratio[3] 	0
scalar geant_cost_network.node[3].content_store 	correction_factor[3] 	8.5631694888715e-317
scalar geant_cost_network.node[3].content_store 	xi[3] 	1
scalar geant_cost_network.node[4].core_layer 	interests[4] 	290308
scalar geant_cost_network.node[4].core_layer 	data[4] 	287034
scalar geant_cost_network.node[4].content_store 	p_hit[4] 	0.0091936839494606
scalar geant_cost_network.node[4].content_store 	hits[4] 	2669
scalar geant_cost_network.node[4].content_store 	misses[4] 	287639
scalar geant_cost_network.node[4].content_store 	decision_yes[4] 	0
scalar geant_cost_network.node[4].content_store 	decision_no[4] 	287034
scalar geant_cost_network.node[4].content_store 	decision_ratio[4] 	0
scalar geant_cost_network.node[4].content_store 	correction_factor[4] 	8.5884616974134e-317
scalar geant_cost_network.node[4].content_store 	xi[4] 	1
scalar geant_cost_network.node[5].core_layer 	interests[5] 	198741
scalar geant_cost_network.node[5].core_layer 	data[5] 	168800
scalar geant_cost_network.node[5].content_store 	p_hit[5] 	0.14264293729024
scalar geant_cost_network.node[5].content_store 	hits[5] 	28349
scalar geant_cost_network.node[5].content_store 	misses[5] 	170392
scalar geant_cost_network.node[5].content_store 	decision_yes[5] 	2
scalar geant_cost_network.node[5].content_store 	decision_no[5] 	168798
scalar geant_cost_network.node[5].content_store 	decision_ratio[5] 	1.1848341232227e-05
scalar geant_cost_network.node[5].content_store 	correction_factor[5] 	8.5911889397784e-317
scalar geant_cost_network.node[5].content_store 	xi[5] 	1
scalar geant_cost_network.node[6].core_layer 	interests[6] 	115298
scalar geant_cost_network.node[6].core_layer 	data[6] 	111008
scalar geant_cost_network.node[6].content_store 	p_hit[6] 	0.037207930753352
scalar geant_cost_network.node[6].content_store 	hits[6] 	4290
scalar geant_cost_network.node[6].content_store 	misses[6] 	111008
scalar geant_cost_network.node[6].content_store 	decision_yes[6] 	0
scalar geant_cost_network.node[6].content_store 	decision_no[6] 	111008
scalar geant_cost_network.node[6].content_store 	decision_ratio[6] 	0
scalar geant_cost_network.node[6].content_store 	correction_factor[6] 	8.5938924669925e-317
scalar geant_cost_network.node[6].content_store 	xi[6] 	1
scalar geant_cost_network.node[7].core_layer 	interests[7] 	462248
scalar geant_cost_network.node[7].core_layer 	data[7] 	446201
scalar geant_cost_network.node[7].content_store 	p_hit[7] 	0.0346978245444
scalar geant_cost_network.node[7].content_store 	hits[7] 	16039
scalar geant_cost_network.node[7].content_store 	misses[7] 	446209
scalar geant_cost_network.node[7].content_store 	decision_yes[7] 	1
scalar geant_cost_network.node[7].content_store 	decision_no[7] 	446200
scalar geant_cost_network.node[7].content_store 	decision_ratio[7] 	2.2411424447726e-06
scalar geant_cost_network.node[7].content_store 	correction_factor[7] 	8.5965643740052e-317
scalar geant_cost_network.node[7].content_store 	xi[7] 	1
scalar geant_cost_network.node[8].core_layer 	interests[8] 	334493
scalar geant_cost_network.node[8].core_layer 	data[8] 	301309
scalar geant_cost_network.node[8].content_store 	p_hit[8] 	0.099206859336369
scalar geant_cost_network.node[8].content_store 	hits[8] 	33184
scalar geant_cost_network.node[8].content_store 	misses[8] 	301309
scalar geant_cost_network.node[8].content_store 	decision_yes[8] 	2
scalar geant_cost_network.node[8].content_store 	decision_no[8] 	301307
scalar geant_cost_network.node[8].content_store 	decision_ratio[8] 	6.6377041508883e-06
scalar geant_cost_network.node[8].content_store 	correction_factor[8] 	8.5993390466722e-317
scalar geant_cost_network.node[8].content_store 	xi[8] 	1
scalar geant_cost_network.node[9].core_layer 	interests[9] 	400635
scalar geant_cost_network.node[9].core_layer 	data[9] 	360325
scalar geant_cost_network.node[9].content_store 	p_hit[9] 	0.092261035605976
scalar geant_cost_network.node[9].content_store 	hits[9] 	36963
scalar geant_cost_network.node[9].content_store 	misses[9] 	363672
scalar geant_cost_network.node[9].content_store 	decision_yes[9] 	0
scalar geant_cost_network.node[9].content_store 	decision_no[9] 	360325
scalar geant_cost_network.node[9].content_store 	decision_ratio[9] 	0
scalar geant_cost_network.node[9].content_store 	correction_factor[9] 	8.5821495147221e-317
scalar geant_cost_network.node[9].content_store 	xi[9] 	1
scalar geant_cost_network.node[10].core_layer 	interests[10] 	185650
scalar geant_cost_network.node[10].core_layer 	data[10] 	172414
scalar geant_cost_network.node[10].content_store 	p_hit[10] 	0.06289253972529
scalar geant_cost_network.node[10].content_store 	hits[10] 	11676
scalar geant_cost_network.node[10].content_store 	misses[10] 	173974
scalar geant_cost_network.node[10].content_store 	decision_yes[10] 	0
scalar geant_cost_network.node[10].content_store 	decision_no[10] 	172414
scalar geant_cost_network.node[10].content_store 	decision_ratio[10] 	0
scalar geant_cost_network.node[10].content_store 	correction_factor[10] 	8.5890664337639e-317
scalar geant_cost_network.node[10].content_store 	xi[10] 	1
scalar geant_cost_network.node[11].core_layer 	interests[11] 	0
scalar geant_cost_network.node[11].core_layer 	data[11] 	0
scalar geant_cost_network.node[11].content_store 	p_hit[11] 	-nan
scalar geant_cost_network.node[11].content_store 	hits[11] 	0
scalar geant_cost_network.node[11].content_store 	misses[11] 	0
scalar geant_cost_network.node[11].content_store 	decision_yes[11] 	0
scalar geant_cost_network.node[11].content_store 	decision_no[11] 	0
scalar geant_cost_network.node[11].content_store 	decision_ratio[11] 	0
scalar geant_cost_network.node[11].content_store 	correction_factor[11] 	8.5821495147221e-317
scalar geant_cost_network.node[11].content_store 	xi[11] 	1
scalar geant_cost_network.node[12].core_layer 	interests[12] 	283855
scalar geant_cost_network.node[12].core_layer 	data[12] 	249329
scalar geant_cost_network.node[12].content_store 	p_hit[12] 	0.10913670712159
scalar geant_cost_network.node[12].content_store 	hits[12] 	30979
scalar geant_cost_network.node[12].content_store 	misses[12] 	252876
scalar geant_cost_network.node[12].content_store 	decision_yes[12] 	0
scalar geant_cost_network.node[12].content_store 	decision_no[12] 	249329
scalar geant_cost_network.node[12].content_store 	decision_ratio[12] 	0
scalar geant_cost_network.node[12].content_store 	correction_factor[12] 	8.5890664337639e-317
scalar geant_cost_network.node[12].content_store 	xi[12] 	1
scalar geant_cost_network.node[13].core_layer 	interests[13] 	13532
scalar geant_cost_network.node[13].core_layer 	data[13] 	13531
scalar geant_cost_network.node[13].content_store 	p_hit[13] 	0
scalar geant_cost_network.node[13].content_store 	hits[13] 	0
scalar geant_cost_network.node[13].content_store 	misses[13] 	13532
scalar geant_cost_network.node[13].content_store 	decision_yes[13] 	0
scalar geant_cost_network.node[13].content_store 	decision_no[13] 	13531
scalar geant_cost_network.node[13].content_store 	decision_ratio[13] 	0
scalar geant_cost_network.node[13].content_store 	correction_factor[13] 	8.5890664337639e-317
scalar geant_cost_network.node[13].content_store 	xi[13] 	1
scalar geant_cost_network.node[14].core_layer 	interests[14] 	54105
scalar geant_cost_network.node[14].core_layer 	data[14] 	36957
scalar geant_cost_network.node[14].content_store 	p_hit[14] 	0.31693928472415
scalar geant_cost_network.node[14].content_store 	hits[14] 	17148
scalar geant_cost_network.node[14].content_store 	misses[14] 	36957
scalar geant_cost_network.node[14].content_store 	decision_yes[14] 	0
scalar geant_cost_network.node[14].content_store 	decision_no[14] 	36957
scalar geant_cost_network.node[14].content_store 	decision_ratio[14] 	0
scalar geant_cost_network.node[14].content_store 	correction_factor[14] 	8.5890664337639e-317
scalar geant_cost_network.node[14].content_store 	xi[14] 	1
scalar geant_cost_network.node[15].core_layer 	interests[15] 	0
scalar geant_cost_network.node[15].core_layer 	data[15] 	0
scalar geant_cost_network.node[15].content_store 	p_hit[15] 	-nan
scalar geant_cost_network.node[15].content_store 	hits[15] 	0
scalar geant_cost_network.node[15].content_store 	misses[15] 	0
scalar geant_cost_network.node[15].content_store 	decision_yes[15] 	0
scalar geant_cost_network.node[15].content_store 	decision_no[15] 	0
scalar geant_cost_network.node[15].content_store 	decision_ratio[15] 	0
scalar geant_cost_network.node[15].content_store 	correction_factor[15] 	8.5890664337639e-317
scalar geant_cost_network.node[15].content_store 	xi[15] 	1
scalar geant_cost_network.node[16].core_layer 	interests[16] 	0
scalar geant_cost_network.node[16].core_layer 	data[16] 	0
scalar geant_cost_network.node[16].content_store 	p_hit[16] 	-nan
scalar geant_cost_network.node[16].content_store 	hits[16] 	0
scalar geant_cost_network.node[16].content_store 	misses[16] 	0
scalar geant_cost_network.node[16].content_store 	decision_yes[16] 	0
scalar geant_cost_network.node[16].content_store 	decision_no[16] 	0
scalar geant_cost_network.node[16].content_store 	decision_ratio[16] 	0
scalar geant_cost_network.node[16].content_store 	correction_factor[16] 	8.5692326624772e-317
scalar geant_cost_network.node[16].content_store 	xi[16] 	1
scalar geant_cost_network.node[17].core_layer 	interests[17] 	0
scalar geant_cost_network.node[17].core_layer 	data[17] 	0
scalar geant_cost_network.node[17].content_store 	p_hit[17] 	-nan
scalar geant_cost_network.node[17].content_store 	hits[17] 	0
scalar geant_cost_network.node[17].content_store 	misses[17] 	0
scalar geant_cost_network.node[17].content_store 	decision_yes[17] 	0
scalar geant_cost_network.node[17].content_store 	decision_no[17] 	0
scalar geant_cost_network.node[17].content_store 	decision_ratio[17] 	0
scalar geant_cost_network.node[17].content_store 	correction_factor[17] 	8.5695488644906e-317
scalar geant_cost_network.node[17].content_store 	xi[17] 	1
scalar geant_cost_network.node[18].core_layer 	interests[18] 	143187
scalar geant_cost_network.node[18].core_layer 	data[18] 	133616
scalar geant_cost_network.node[18].content_store 	p_hit[18] 	0.066835676423139
scalar geant_cost_network.node[18].content_store 	hits[18] 	9570
scalar geant_cost_network.node[18].content_store 	misses[18] 	133617
scalar geant_cost_network.node[18].content_store 	decision_yes[18] 	2
scalar geant_cost_network.node[18].content_store 	decision_no[18] 	133614
scalar geant_cost_network.node[18].content_store 	decision_ratio[18] 	1.496826727338e-05
scalar geant_cost_network.node[18].content_store 	correction_factor[18] 	8.6059911465278e-317
scalar geant_cost_network.node[18].content_store 	xi[18] 	1
scalar geant_cost_network.node[19].core_layer 	interests[19] 	0
scalar geant_cost_network.node[19].core_layer 	data[19] 	0
scalar geant_cost_network.node[19].content_store 	p_hit[19] 	-nan
scalar geant_cost_network.node[19].content_store 	hits[19] 	0
scalar geant_cost_network.node[19].content_store 	misses[19] 	0
scalar geant_cost_network.node[19].content_store 	decision_yes[19] 	0
scalar geant_cost_network.node[19].content_store 	decision_no[19] 	0
scalar geant_cost_network.node[19].content_store 	decision_ratio[19] 	0
scalar geant_cost_network.node[19].content_store 	correction_factor[19] 	8.5902600963643e-317
scalar geant_cost_network.node[19].content_store 	xi[19] 	1
scalar geant_cost_network.node[20].core_layer 	interests[20] 	186918
scalar geant_cost_network.node[20].core_layer 	data[20] 	172392
scalar geant_cost_network.node[20].content_store 	p_hit[20] 	0.069024920018404
scalar geant_cost_network.node[20].content_store 	hits[20] 	12902
scalar geant_cost_network.node[20].content_store 	misses[20] 	174016
scalar geant_cost_network.node[20].content_store 	decision_yes[20] 	0
scalar geant_cost_network.node[20].content_store 	decision_no[20] 	172392
scalar geant_cost_network.node[20].content_store 	decision_ratio[20] 	0
scalar geant_cost_network.node[20].content_store 	correction_factor[20] 	8.6221806896108e-317
scalar geant_cost_network.node[20].content_store 	xi[20] 	1
scalar geant_cost_network.node[21].core_layer 	interests[21] 	152411
scalar geant_cost_network.node[21].core_layer 	data[21] 	122990
scalar geant_cost_network.node[21].content_store 	p_hit[21] 	0.19303724796767
scalar geant_cost_network.node[21].content_store 	hits[21] 	29421
scalar geant_cost_network.node[21].content_store 	misses[21] 	122990
scalar geant_cost_network.node[21].content_store 	decision_yes[21] 	0
scalar geant_cost_network.node[21].content_store 	decision_no[21] 	122990
scalar geant_cost_network.node[21].content_store 	decision_ratio[21] 	0
scalar geant_cost_network.node[21].content_store 	correction_factor[21] 	8.6225047966744e-317
scalar geant_cost_network.node[21].content_store 	xi[21] 	1
scalar geant_cost_network.node[22].core_layer 	interests[22] 	373575
scalar geant_cost_network.node[22].core_layer 	repo_load[22] 	373575
scalar geant_cost_network.node[22].core_layer 	data[22] 	0
scalar geant_cost_network.node[22].content_store 	p_hit[22] 	0
scalar geant_cost_network.node[22].content_store 	hits[22] 	0
scalar geant_cost_network.node[22].content_store 	misses[22] 	373575
scalar geant_cost_network.node[22].content_store 	decision_yes[22] 	0
scalar geant_cost_network.node[22].content_store 	decision_no[22] 	373575
scalar geant_cost_network.node[22].content_store 	decision_ratio[22] 	0
scalar geant_cost_network.node[23].core_layer 	interests[23] 	141309
scalar geant_cost_network.node[23].core_layer 	repo_load[23] 	141309
scalar geant_cost_network.node[23].core_layer 	data[23] 	0
scalar geant_cost_network.node[23].content_store 	p_hit[23] 	0
scalar geant_cost_network.node[23].content_store 	hits[23] 	0
scalar geant_cost_network.node[23].content_store 	misses[23] 	141309
scalar geant_cost_network.node[23].content_store 	decision_yes[23] 	0
scalar geant_cost_network.node[23].content_store 	decision_no[23] 	141309
scalar geant_cost_network.node[23].content_store 	decision_ratio[23] 	0
scalar geant_cost_network.node[24].core_layer 	interests[24] 	122990
scalar geant_cost_network.node[24].core_layer 	repo_load[24] 	122990
scalar geant_cost_network.node[24].core_layer 	data[24] 	0
scalar geant_cost_network.node[24].content_store 	p_hit[24] 	0
scalar geant_cost_network.node[24].content_store 	hits[24] 	0
scalar geant_cost_network.node[24].content_store 	misses[24] 	122990
scalar geant_cost_network.node[24].content_store 	decision_yes[24] 	0
scalar geant_cost_network.node[24].content_store 	decision_no[24] 	122990
scalar geant_cost_network.node[24].content_store 	decision_ratio[24] 	0
scalar geant_cost_network.client[5] 	hdistance[5] 	3.4570282829185
scalar geant_cost_network.client[5] 	downloads[5] 	179048
scalar geant_cost_network.client[5] 	avg_time[5] 	0.009101554901
scalar geant_cost_network.client[5] 	interests_sent[5] 	180638
scalar geant_cost_network.client[9] 	hdistance[9] 	3.4385401640127
scalar geant_cost_network.client[9] 	downloads[9] 	178157
scalar geant_cost_network.client[9] 	avg_time[9] 	0.005878232813
scalar geant_cost_network.client[9] 	interests_sent[9] 	179337
scalar geant_cost_network.client[10] 	hdistance[10] 	4.3997564684559
scalar geant_cost_network.client[10] 	downloads[10] 	178211
scalar geant_cost_network.client[10] 	avg_time[10] 	0.007817655838
scalar geant_cost_network.client[10] 	interests_sent[10] 	179771
scalar geant_cost_network.client[12] 	hdistance[12] 	3.8561973087128
scalar geant_cost_network.client[12] 	downloads[12] 	178279
scalar geant_cost_network.client[12] 	avg_time[12] 	0.007018489717
scalar geant_cost_network.client[12] 	interests_sent[12] 	179787
scalar geant_cost_network.client[20] 	hdistance[20] 	4.041588949942
scalar geant_cost_network.client[20] 	downloads[20] 	178533
scalar geant_cost_network.client[20] 	avg_time[20] 	0.007475817383
scalar geant_cost_network.client[20] 	interests_sent[20] 	180157
