version 2
run General-1158-20140421-20:28:01-15895
attr D lce
attr F nrr
attr R lru
attr a 0.8
attr configname General
attr csize 10
attr ctlg 10^3
attr datetime 20140421-20:28:01
attr experiment General
attr inifile omnetpp.ini
attr iterationvars "$net=simple_scenario, $rep=25, $priceratiovalue=4, $a=0.8, $ctlg=10^3, $F=nrr, $ttl=1000, $D=lce, $R=lru, $csize=10"
attr iterationvars2 "$net=simple_scenario, $rep=25, $priceratiovalue=4, $a=0.8, $ctlg=10^3, $F=nrr, $ttl=1000, $D=lce, $R=lru, $csize=10, $repetition=0"
attr measurement "$net=simple_scenario, $rep=25, $priceratiovalue=4, $a=0.8, $ctlg=10^3, $F=nrr, $ttl=1000, $D=lce, $R=lru, $csize=10"
attr net simple_scenario
attr network networks.${net=simple_scenario}_network
attr priceratiovalue 4
attr processid 15895
attr rep 25
attr repetition 0
attr replication #0
attr resultdir results
attr runnumber 1158
attr seedset 25
attr ttl 1000

scalar . 	a 	0.8
scalar . 	csize 	10
scalar . 	priceratiovalue 	4
scalar . 	rep 	25
scalar . 	ttl 	1000
scalar simple_scenario_network.content_distribution 	repo-0 	3
scalar simple_scenario_network.content_distribution 	repo-1 	4
scalar simple_scenario_network.content_distribution 	client-0 	0
scalar simple_scenario_network.content_distribution 	repo-0_card 	506
scalar simple_scenario_network.content_distribution 	repo-1_card 	494
scalar simple_scenario_network.statistics 	p_hit 	0.049541112006253
scalar simple_scenario_network.statistics 	interests 	100046.2
scalar simple_scenario_network.statistics 	data 	64042.2
scalar simple_scenario_network.statistics 	hdistance 	2.6410898789023
scalar simple_scenario_network.statistics 	avg_time 	0.001998008284
scalar simple_scenario_network.statistics 	downloads 	180020
scalar simple_scenario_network.statistics 	total_cost 	75876
scalar simple_scenario_network.node[0].core_layer 	interests[0] 	180020
scalar simple_scenario_network.node[0].core_layer 	data[0] 	164973
scalar simple_scenario_network.node[0].core_layer 	repo_int[0] 	155238
scalar simple_scenario_network.node[0].content_store 	p_hit[0] 	0.083585157204755
scalar simple_scenario_network.node[0].content_store 	hits[0] 	15047
scalar simple_scenario_network.node[0].content_store 	misses[0] 	164973
scalar simple_scenario_network.node[1].core_layer 	interests[1] 	86622
scalar simple_scenario_network.node[1].core_layer 	data[1] 	80522
scalar simple_scenario_network.node[1].content_store 	p_hit[1] 	0.070420909237838
scalar simple_scenario_network.node[1].content_store 	hits[1] 	6100
scalar simple_scenario_network.node[1].content_store 	misses[1] 	80522
scalar simple_scenario_network.node[2].core_layer 	interests[2] 	78351
scalar simple_scenario_network.node[2].core_layer 	data[2] 	74716
scalar simple_scenario_network.node[2].content_store 	p_hit[2] 	0.046393792038391
scalar simple_scenario_network.node[2].content_store 	hits[2] 	3635
scalar simple_scenario_network.node[2].content_store 	misses[2] 	74716
scalar simple_scenario_network.node[3].core_layer 	interests[3] 	80522
scalar simple_scenario_network.node[3].core_layer 	repo_load[3] 	80522
scalar simple_scenario_network.node[3].core_layer 	data[3] 	0
scalar simple_scenario_network.node[3].content_store 	p_hit[3] 	0
scalar simple_scenario_network.node[3].content_store 	hits[3] 	0
scalar simple_scenario_network.node[3].content_store 	misses[3] 	80522
scalar simple_scenario_network.node[4].core_layer 	interests[4] 	74716
scalar simple_scenario_network.node[4].core_layer 	repo_load[4] 	74716
scalar simple_scenario_network.node[4].core_layer 	data[4] 	0
scalar simple_scenario_network.node[4].content_store 	p_hit[4] 	0
scalar simple_scenario_network.node[4].content_store 	hits[4] 	0
scalar simple_scenario_network.node[4].content_store 	misses[4] 	74716
scalar simple_scenario_network.client[0] 	hdistance[0] 	2.6410898789023
scalar simple_scenario_network.client[0] 	downloads[0] 	180020
scalar simple_scenario_network.client[0] 	avg_time[0] 	0.001998008284
