version 2
run General-372-20140502-01:45:42-9255
attr D costprob0.1
attr F nrr
attr R lru
attr a 1
attr configname General
attr csize 1e3
attr ctlg 1e5
attr datetime 20140502-01:45:42
attr experiment General
attr inifile omnetpp.ini
attr iterationvars "$net=three_caches_scenario_3_links, $rep=1, $priceratiovalue=5, $weights=0.7_0.15_0.15, $a=1, $ctlg=1e5, $F=nrr, $ttl=1000, $D=costprob0.1, $xi=1, $R=lru, $csize=1e3"
attr iterationvars2 "$net=three_caches_scenario_3_links, $rep=1, $priceratiovalue=5, $weights=0.7_0.15_0.15, $a=1, $ctlg=1e5, $F=nrr, $ttl=1000, $D=costprob0.1, $xi=1, $R=lru, $csize=1e3, $repetition=0"
attr measurement "$net=three_caches_scenario_3_links, $rep=1, $priceratiovalue=5, $weights=0.7_0.15_0.15, $a=1, $ctlg=1e5, $F=nrr, $ttl=1000, $D=costprob0.1, $xi=1, $R=lru, $csize=1e3"
attr net three_caches_scenario_3_links
attr network networks.${net=three_caches_scenario_3_links}_network
attr priceratiovalue 5
attr processid 9255
attr rep 1
attr repetition 0
attr replication #0
attr resultdir results
attr runnumber 372
attr seedset 1
attr ttl 1000
attr weights 0.7_0.15_0.15
attr xi 1

scalar . 	a 	1
scalar . 	csize 	1e3
scalar . 	ctlg 	1e5
scalar . 	priceratiovalue 	5
scalar . 	rep 	1
scalar . 	ttl 	1000
scalar . 	xi 	1
scalar three_caches_scenario_3_links_network.content_distribution 	repo-0 	4
scalar three_caches_scenario_3_links_network.content_distribution 	repo-1 	5
scalar three_caches_scenario_3_links_network.content_distribution 	repo-2 	6
scalar three_caches_scenario_3_links_network.content_distribution 	client-0 	0
scalar three_caches_scenario_3_links_network.content_distribution 	repo-0_card 	70018
scalar three_caches_scenario_3_links_network.content_distribution 	repo-1_card 	15023
scalar three_caches_scenario_3_links_network.content_distribution 	repo-2_card 	14959
scalar three_caches_scenario_3_links_network.statistics 	p_hit 	0.054692133592261
scalar three_caches_scenario_3_links_network.statistics 	interests 	72018.714285714
scalar three_caches_scenario_3_links_network.statistics 	data 	46308.428571429
scalar three_caches_scenario_3_links_network.statistics 	hdistance 	1.9117696086058
scalar three_caches_scenario_3_links_network.statistics 	avg_time 	0
scalar three_caches_scenario_3_links_network.statistics 	downloads 	179972
scalar three_caches_scenario_3_links_network.statistics 	total_cost 	60022
scalar three_caches_scenario_3_links_network.statistics 	total_replicas 	100000
scalar three_caches_scenario_3_links_network.statistics 	interests_sent 	179972
scalar three_caches_scenario_3_links_network.node[0].core_layer 	interests[0] 	179972
scalar three_caches_scenario_3_links_network.node[0].core_layer 	data[0] 	171759
scalar three_caches_scenario_3_links_network.node[0].core_layer 	repo_int[0] 	152400
scalar three_caches_scenario_3_links_network.node[0].content_store 	p_hit[0] 	0.04563487653635
scalar three_caches_scenario_3_links_network.node[0].content_store 	hits[0] 	8213
scalar three_caches_scenario_3_links_network.node[0].content_store 	misses[0] 	171759
scalar three_caches_scenario_3_links_network.node[0].content_store 	decision_yes[0] 	6588
scalar three_caches_scenario_3_links_network.node[0].content_store 	decision_no[0] 	165171
scalar three_caches_scenario_3_links_network.node[1].core_layer 	interests[1] 	132494
scalar three_caches_scenario_3_links_network.node[1].core_layer 	data[1] 	132494
scalar three_caches_scenario_3_links_network.node[1].content_store 	p_hit[1] 	0
scalar three_caches_scenario_3_links_network.node[1].content_store 	hits[1] 	0
scalar three_caches_scenario_3_links_network.node[1].content_store 	misses[1] 	132494
scalar three_caches_scenario_3_links_network.node[1].content_store 	decision_yes[1] 	0
scalar three_caches_scenario_3_links_network.node[1].content_store 	decision_no[1] 	132494
scalar three_caches_scenario_3_links_network.node[2].core_layer 	interests[2] 	25668
scalar three_caches_scenario_3_links_network.node[2].core_layer 	data[2] 	9877
scalar three_caches_scenario_3_links_network.node[2].content_store 	p_hit[2] 	0.6152018076983
scalar three_caches_scenario_3_links_network.node[2].content_store 	hits[2] 	15791
scalar three_caches_scenario_3_links_network.node[2].content_store 	misses[2] 	9877
scalar three_caches_scenario_3_links_network.node[2].content_store 	decision_yes[2] 	1072
scalar three_caches_scenario_3_links_network.node[2].content_store 	decision_no[2] 	8805
scalar three_caches_scenario_3_links_network.node[3].core_layer 	interests[3] 	13597
scalar three_caches_scenario_3_links_network.node[3].core_layer 	data[3] 	10029
scalar three_caches_scenario_3_links_network.node[3].content_store 	p_hit[3] 	0.26241082591748
scalar three_caches_scenario_3_links_network.node[3].content_store 	hits[3] 	3568
scalar three_caches_scenario_3_links_network.node[3].content_store 	misses[3] 	10029
scalar three_caches_scenario_3_links_network.node[3].content_store 	decision_yes[3] 	5552
scalar three_caches_scenario_3_links_network.node[3].content_store 	decision_no[3] 	4477
scalar three_caches_scenario_3_links_network.node[4].core_layer 	interests[4] 	132494
scalar three_caches_scenario_3_links_network.node[4].core_layer 	repo_load[4] 	132494
scalar three_caches_scenario_3_links_network.node[4].core_layer 	data[4] 	0
scalar three_caches_scenario_3_links_network.node[4].content_store 	p_hit[4] 	0
scalar three_caches_scenario_3_links_network.node[4].content_store 	hits[4] 	0
scalar three_caches_scenario_3_links_network.node[4].content_store 	misses[4] 	132494
scalar three_caches_scenario_3_links_network.node[4].content_store 	decision_yes[4] 	0
scalar three_caches_scenario_3_links_network.node[4].content_store 	decision_no[4] 	132494
scalar three_caches_scenario_3_links_network.node[5].core_layer 	interests[5] 	9877
scalar three_caches_scenario_3_links_network.node[5].core_layer 	repo_load[5] 	9877
scalar three_caches_scenario_3_links_network.node[5].core_layer 	data[5] 	0
scalar three_caches_scenario_3_links_network.node[5].content_store 	p_hit[5] 	0
scalar three_caches_scenario_3_links_network.node[5].content_store 	hits[5] 	0
scalar three_caches_scenario_3_links_network.node[5].content_store 	misses[5] 	9877
scalar three_caches_scenario_3_links_network.node[5].content_store 	decision_yes[5] 	0
scalar three_caches_scenario_3_links_network.node[5].content_store 	decision_no[5] 	9877
scalar three_caches_scenario_3_links_network.node[6].core_layer 	interests[6] 	10029
scalar three_caches_scenario_3_links_network.node[6].core_layer 	repo_load[6] 	10029
scalar three_caches_scenario_3_links_network.node[6].core_layer 	data[6] 	0
scalar three_caches_scenario_3_links_network.node[6].content_store 	p_hit[6] 	0
scalar three_caches_scenario_3_links_network.node[6].content_store 	hits[6] 	0
scalar three_caches_scenario_3_links_network.node[6].content_store 	misses[6] 	10029
scalar three_caches_scenario_3_links_network.node[6].content_store 	decision_yes[6] 	0
scalar three_caches_scenario_3_links_network.node[6].content_store 	decision_no[6] 	10029
scalar three_caches_scenario_3_links_network.client[0] 	hdistance[0] 	1.9117696086058
scalar three_caches_scenario_3_links_network.client[0] 	downloads[0] 	179972
scalar three_caches_scenario_3_links_network.client[0] 	avg_time[0] 	0
scalar three_caches_scenario_3_links_network.client[0] 	interests_sent[0] 	179972
