version 2
run General-5513-20140423-20:51:16-32744
attr D prob_cache
attr F nrr
attr R lru
attr a 0
attr configname General
attr csize 2
attr ctlg 10^3
attr datetime 20140423-20:51:16
attr experiment General
attr inifile omnetpp.ini
attr iterationvars "$net=simple_scenario, $rep=16, $priceratiovalue=4, $a=0, $ctlg=10^3, $F=nrr, $ttl=1000, $D=prob_cache, $R=lru, $csize=2"
attr iterationvars2 "$net=simple_scenario, $rep=16, $priceratiovalue=4, $a=0, $ctlg=10^3, $F=nrr, $ttl=1000, $D=prob_cache, $R=lru, $csize=2, $repetition=0"
attr measurement "$net=simple_scenario, $rep=16, $priceratiovalue=4, $a=0, $ctlg=10^3, $F=nrr, $ttl=1000, $D=prob_cache, $R=lru, $csize=2"
attr net simple_scenario
attr network networks.${net=simple_scenario}_network
attr priceratiovalue 4
attr processid 32744
attr rep 16
attr repetition 0
attr replication #0
attr resultdir results
attr runnumber 5513
attr seedset 16
attr ttl 1000

scalar . 	a 	0
scalar . 	csize 	2
scalar . 	priceratiovalue 	4
scalar . 	rep 	16
scalar . 	ttl 	1000
scalar simple_scenario_network.content_distribution 	repo-0 	3
scalar simple_scenario_network.content_distribution 	repo-1 	4
scalar simple_scenario_network.content_distribution 	client-0 	0
scalar simple_scenario_network.content_distribution 	repo-0_card 	495
scalar simple_scenario_network.content_distribution 	repo-1_card 	505
scalar simple_scenario_network.statistics 	p_hit 	0.0020072267590622
scalar simple_scenario_network.statistics 	interests 	107710.8
scalar simple_scenario_network.statistics 	data 	71710.8
scalar simple_scenario_network.statistics 	hdistance 	2.9859611111112
scalar simple_scenario_network.statistics 	avg_time 	0.001999706842
scalar simple_scenario_network.statistics 	downloads 	180000
scalar simple_scenario_network.statistics 	total_cost 	90053
scalar simple_scenario_network.node[0].core_layer 	interests[0] 	180000
scalar simple_scenario_network.node[0].core_layer 	data[0] 	179635
scalar simple_scenario_network.node[0].core_layer 	repo_int[0] 	178919
scalar simple_scenario_network.node[0].content_store 	p_hit[0] 	0.0020277777777778
scalar simple_scenario_network.node[0].content_store 	hits[0] 	365
scalar simple_scenario_network.node[0].content_store 	misses[0] 	179635
scalar simple_scenario_network.node[1].core_layer 	interests[1] 	88825
scalar simple_scenario_network.node[1].core_layer 	data[1] 	88470
scalar simple_scenario_network.node[1].content_store 	p_hit[1] 	0.003996622572474
scalar simple_scenario_network.node[1].content_store 	hits[1] 	355
scalar simple_scenario_network.node[1].content_store 	misses[1] 	88470
scalar simple_scenario_network.node[2].core_layer 	interests[2] 	90810
scalar simple_scenario_network.node[2].core_layer 	data[2] 	90449
scalar simple_scenario_network.node[2].content_store 	p_hit[2] 	0.0039753331130933
scalar simple_scenario_network.node[2].content_store 	hits[2] 	361
scalar simple_scenario_network.node[2].content_store 	misses[2] 	90449
scalar simple_scenario_network.node[3].core_layer 	interests[3] 	88470
scalar simple_scenario_network.node[3].core_layer 	repo_load[3] 	88470
scalar simple_scenario_network.node[3].core_layer 	data[3] 	0
scalar simple_scenario_network.node[3].content_store 	p_hit[3] 	0
scalar simple_scenario_network.node[3].content_store 	hits[3] 	0
scalar simple_scenario_network.node[3].content_store 	misses[3] 	88470
scalar simple_scenario_network.node[4].core_layer 	interests[4] 	90449
scalar simple_scenario_network.node[4].core_layer 	repo_load[4] 	90449
scalar simple_scenario_network.node[4].core_layer 	data[4] 	0
scalar simple_scenario_network.node[4].content_store 	p_hit[4] 	0
scalar simple_scenario_network.node[4].content_store 	hits[4] 	0
scalar simple_scenario_network.node[4].content_store 	misses[4] 	90449
scalar simple_scenario_network.client[0] 	hdistance[0] 	2.9859611111112
scalar simple_scenario_network.client[0] 	downloads[0] 	180000
scalar simple_scenario_network.client[0] 	avg_time[0] 	0.001999706842
