version 2
run General-2633-20140423-19:38:29-28770
attr D prob_cache
attr F nrr
attr R lru
attr a 0
attr configname General
attr csize 2
attr ctlg 10^3
attr datetime 20140423-19:38:29
attr experiment General
attr inifile omnetpp.ini
attr iterationvars "$net=simple_scenario, $rep=8, $priceratiovalue=4, $a=0, $ctlg=10^3, $F=nrr, $ttl=1000, $D=prob_cache, $R=lru, $csize=2"
attr iterationvars2 "$net=simple_scenario, $rep=8, $priceratiovalue=4, $a=0, $ctlg=10^3, $F=nrr, $ttl=1000, $D=prob_cache, $R=lru, $csize=2, $repetition=0"
attr measurement "$net=simple_scenario, $rep=8, $priceratiovalue=4, $a=0, $ctlg=10^3, $F=nrr, $ttl=1000, $D=prob_cache, $R=lru, $csize=2"
attr net simple_scenario
attr network networks.${net=simple_scenario}_network
attr priceratiovalue 4
attr processid 28770
attr rep 8
attr repetition 0
attr replication #0
attr resultdir results
attr runnumber 2633
attr seedset 8
attr ttl 1000

scalar . 	a 	0
scalar . 	csize 	2
scalar . 	priceratiovalue 	4
scalar . 	rep 	8
scalar . 	ttl 	1000
scalar simple_scenario_network.content_distribution 	repo-0 	3
scalar simple_scenario_network.content_distribution 	repo-1 	4
scalar simple_scenario_network.content_distribution 	client-0 	0
scalar simple_scenario_network.content_distribution 	repo-0_card 	485
scalar simple_scenario_network.content_distribution 	repo-1_card 	515
scalar simple_scenario_network.statistics 	p_hit 	0.0019442632187658
scalar simple_scenario_network.statistics 	interests 	107907.2
scalar simple_scenario_network.statistics 	data 	71844.2
scalar simple_scenario_network.statistics 	hdistance 	2.9863682999196
scalar simple_scenario_network.statistics 	avg_time 	0.00199971133
scalar simple_scenario_network.statistics 	downloads 	180315
scalar simple_scenario_network.statistics 	total_cost 	91131
scalar simple_scenario_network.node[0].core_layer 	interests[0] 	180315
scalar simple_scenario_network.node[0].core_layer 	data[0] 	179955
scalar simple_scenario_network.node[0].core_layer 	repo_int[0] 	179266
scalar simple_scenario_network.node[0].content_store 	p_hit[0] 	0.0019965061143
scalar simple_scenario_network.node[0].content_store 	hits[0] 	360
scalar simple_scenario_network.node[0].content_store 	misses[0] 	179955
scalar simple_scenario_network.node[1].core_layer 	interests[1] 	87470
scalar simple_scenario_network.node[1].core_layer 	data[1] 	87136
scalar simple_scenario_network.node[1].content_store 	p_hit[1] 	0.0038184520406997
scalar simple_scenario_network.node[1].content_store 	hits[1] 	334
scalar simple_scenario_network.node[1].content_store 	misses[1] 	87136
scalar simple_scenario_network.node[2].core_layer 	interests[2] 	92485
scalar simple_scenario_network.node[2].core_layer 	data[2] 	92130
scalar simple_scenario_network.node[2].content_store 	p_hit[2] 	0.003838460290858
scalar simple_scenario_network.node[2].content_store 	hits[2] 	355
scalar simple_scenario_network.node[2].content_store 	misses[2] 	92130
scalar simple_scenario_network.node[3].core_layer 	interests[3] 	87136
scalar simple_scenario_network.node[3].core_layer 	repo_load[3] 	87136
scalar simple_scenario_network.node[3].core_layer 	data[3] 	0
scalar simple_scenario_network.node[3].content_store 	p_hit[3] 	0
scalar simple_scenario_network.node[3].content_store 	hits[3] 	0
scalar simple_scenario_network.node[3].content_store 	misses[3] 	87136
scalar simple_scenario_network.node[4].core_layer 	interests[4] 	92130
scalar simple_scenario_network.node[4].core_layer 	repo_load[4] 	92130
scalar simple_scenario_network.node[4].core_layer 	data[4] 	0
scalar simple_scenario_network.node[4].content_store 	p_hit[4] 	0
scalar simple_scenario_network.node[4].content_store 	hits[4] 	0
scalar simple_scenario_network.node[4].content_store 	misses[4] 	92130
scalar simple_scenario_network.client[0] 	hdistance[0] 	2.9863682999196
scalar simple_scenario_network.client[0] 	downloads[0] 	180315
scalar simple_scenario_network.client[0] 	avg_time[0] 	0.00199971133
