version 2
run General-3367-20140423-19:57:11-30402
attr D fix0.01
attr F nrr
attr R lru
attr a 0.8
attr configname General
attr csize 2
attr ctlg 10^3
attr datetime 20140423-19:57:11
attr experiment General
attr inifile omnetpp.ini
attr iterationvars "$net=simple_scenario, $rep=10, $priceratiovalue=4, $a=0.8, $ctlg=10^3, $F=nrr, $ttl=1000, $D=fix0.01, $R=lru, $csize=2"
attr iterationvars2 "$net=simple_scenario, $rep=10, $priceratiovalue=4, $a=0.8, $ctlg=10^3, $F=nrr, $ttl=1000, $D=fix0.01, $R=lru, $csize=2, $repetition=0"
attr measurement "$net=simple_scenario, $rep=10, $priceratiovalue=4, $a=0.8, $ctlg=10^3, $F=nrr, $ttl=1000, $D=fix0.01, $R=lru, $csize=2"
attr net simple_scenario
attr network networks.${net=simple_scenario}_network
attr priceratiovalue 4
attr processid 30402
attr rep 10
attr repetition 0
attr replication #0
attr resultdir results
attr runnumber 3367
attr seedset 10
attr ttl 1000

scalar . 	a 	0.8
scalar . 	csize 	2
scalar . 	priceratiovalue 	4
scalar . 	rep 	10
scalar . 	ttl 	1000
scalar simple_scenario_network.content_distribution 	repo-0 	3
scalar simple_scenario_network.content_distribution 	repo-1 	4
scalar simple_scenario_network.content_distribution 	client-0 	0
scalar simple_scenario_network.content_distribution 	repo-0_card 	519
scalar simple_scenario_network.content_distribution 	repo-1_card 	481
scalar simple_scenario_network.statistics 	p_hit 	0.025552675654261
scalar simple_scenario_network.statistics 	interests 	104247.4
scalar simple_scenario_network.statistics 	data 	68263.4
scalar simple_scenario_network.statistics 	hdistance 	2.8230213428191
scalar simple_scenario_network.statistics 	avg_time 	0.001998083847
scalar simple_scenario_network.statistics 	downloads 	179920
scalar simple_scenario_network.statistics 	total_cost 	84051
scalar simple_scenario_network.node[0].core_layer 	interests[0] 	179920
scalar simple_scenario_network.node[0].core_layer 	data[0] 	174716
scalar simple_scenario_network.node[0].core_layer 	repo_int[0] 	166601
scalar simple_scenario_network.node[0].content_store 	p_hit[0] 	0.028923966207203
scalar simple_scenario_network.node[0].content_store 	hits[0] 	5204
scalar simple_scenario_network.node[0].content_store 	misses[0] 	174716
scalar simple_scenario_network.node[1].core_layer 	interests[1] 	84201
scalar simple_scenario_network.node[1].core_layer 	data[1] 	82048
scalar simple_scenario_network.node[1].content_store 	p_hit[1] 	0.025569767579957
scalar simple_scenario_network.node[1].content_store 	hits[1] 	2153
scalar simple_scenario_network.node[1].content_store 	misses[1] 	82048
scalar simple_scenario_network.node[2].core_layer 	interests[2] 	90515
scalar simple_scenario_network.node[2].core_layer 	data[2] 	84553
scalar simple_scenario_network.node[2].content_store 	p_hit[2] 	0.065867535767552
scalar simple_scenario_network.node[2].content_store 	hits[2] 	5962
scalar simple_scenario_network.node[2].content_store 	misses[2] 	84553
scalar simple_scenario_network.node[3].core_layer 	interests[3] 	82048
scalar simple_scenario_network.node[3].core_layer 	repo_load[3] 	82048
scalar simple_scenario_network.node[3].core_layer 	data[3] 	0
scalar simple_scenario_network.node[3].content_store 	p_hit[3] 	0
scalar simple_scenario_network.node[3].content_store 	hits[3] 	0
scalar simple_scenario_network.node[3].content_store 	misses[3] 	82048
scalar simple_scenario_network.node[4].core_layer 	interests[4] 	84553
scalar simple_scenario_network.node[4].core_layer 	repo_load[4] 	84553
scalar simple_scenario_network.node[4].core_layer 	data[4] 	0
scalar simple_scenario_network.node[4].content_store 	p_hit[4] 	0
scalar simple_scenario_network.node[4].content_store 	hits[4] 	0
scalar simple_scenario_network.node[4].content_store 	misses[4] 	84553
scalar simple_scenario_network.client[0] 	hdistance[0] 	2.8230213428191
scalar simple_scenario_network.client[0] 	downloads[0] 	179920
scalar simple_scenario_network.client[0] 	avg_time[0] 	0.001998083847
