version 2
run General-5988-20140425-08:57:59-19048
attr D fix0.0001
attr F nrr
attr R lru
attr a 0.8
attr configname General
attr csize 30
attr ctlg 10^3
attr datetime 20140425-08:57:59
attr experiment General
attr inifile omnetpp.ini
attr iterationvars "$net=one_cache_scenario, $rep=15, $priceratiovalue=3, $a=0.8, $ctlg=10^3, $F=nrr, $ttl=1000, $D=fix0.0001, $R=lru, $csize=30"
attr iterationvars2 "$net=one_cache_scenario, $rep=15, $priceratiovalue=3, $a=0.8, $ctlg=10^3, $F=nrr, $ttl=1000, $D=fix0.0001, $R=lru, $csize=30, $repetition=0"
attr measurement "$net=one_cache_scenario, $rep=15, $priceratiovalue=3, $a=0.8, $ctlg=10^3, $F=nrr, $ttl=1000, $D=fix0.0001, $R=lru, $csize=30"
attr net one_cache_scenario
attr network networks.${net=one_cache_scenario}_network
attr priceratiovalue 3
attr processid 19048
attr rep 15
attr repetition 0
attr replication #0
attr resultdir results
attr runnumber 5988
attr seedset 15
attr ttl 1000

scalar . 	a 	0.8
scalar . 	csize 	30
scalar . 	priceratiovalue 	3
scalar . 	rep 	15
scalar . 	ttl 	1000
scalar one_cache_scenario_network.content_distribution 	repo-0 	3
scalar one_cache_scenario_network.content_distribution 	repo-1 	4
scalar one_cache_scenario_network.content_distribution 	client-0 	0
scalar one_cache_scenario_network.content_distribution 	repo-0_card 	484
scalar one_cache_scenario_network.content_distribution 	repo-1_card 	516
scalar one_cache_scenario_network.statistics 	p_hit 	0.092004636523399
scalar one_cache_scenario_network.statistics 	interests 	90930.2
scalar one_cache_scenario_network.statistics 	data 	55042.8
scalar one_cache_scenario_network.statistics 	hdistance 	1.5337639394328
scalar one_cache_scenario_network.statistics 	avg_time 	0
scalar one_cache_scenario_network.statistics 	downloads 	179437
scalar one_cache_scenario_network.statistics 	total_cost 	70128
scalar one_cache_scenario_network.statistics 	interests_sent 	179437
scalar one_cache_scenario_network.node[0].core_layer 	interests[0] 	179437
scalar one_cache_scenario_network.node[0].core_layer 	data[0] 	137607
scalar one_cache_scenario_network.node[0].core_layer 	repo_int[0] 	137607
scalar one_cache_scenario_network.node[0].content_store 	p_hit[0] 	0.23311803028361
scalar one_cache_scenario_network.node[0].content_store 	hits[0] 	41830
scalar one_cache_scenario_network.node[0].content_store 	misses[0] 	137607
scalar one_cache_scenario_network.node[0].content_store 	decision_yes[0] 	15
scalar one_cache_scenario_network.node[0].content_store 	decision_no[0] 	137592
scalar one_cache_scenario_network.node[1].core_layer 	interests[1] 	66153
scalar one_cache_scenario_network.node[1].core_layer 	data[1] 	66153
scalar one_cache_scenario_network.node[1].content_store 	p_hit[1] 	0
scalar one_cache_scenario_network.node[1].content_store 	hits[1] 	0
scalar one_cache_scenario_network.node[1].content_store 	misses[1] 	66153
scalar one_cache_scenario_network.node[1].content_store 	decision_yes[1] 	0
scalar one_cache_scenario_network.node[1].content_store 	decision_no[1] 	66153
scalar one_cache_scenario_network.node[2].core_layer 	interests[2] 	71454
scalar one_cache_scenario_network.node[2].core_layer 	data[2] 	71454
scalar one_cache_scenario_network.node[2].content_store 	p_hit[2] 	0
scalar one_cache_scenario_network.node[2].content_store 	hits[2] 	0
scalar one_cache_scenario_network.node[2].content_store 	misses[2] 	71454
scalar one_cache_scenario_network.node[2].content_store 	decision_yes[2] 	0
scalar one_cache_scenario_network.node[2].content_store 	decision_no[2] 	71454
scalar one_cache_scenario_network.node[3].core_layer 	interests[3] 	66153
scalar one_cache_scenario_network.node[3].core_layer 	repo_load[3] 	66153
scalar one_cache_scenario_network.node[3].core_layer 	data[3] 	0
scalar one_cache_scenario_network.node[3].content_store 	p_hit[3] 	0
scalar one_cache_scenario_network.node[3].content_store 	hits[3] 	0
scalar one_cache_scenario_network.node[3].content_store 	misses[3] 	66153
scalar one_cache_scenario_network.node[3].content_store 	decision_yes[3] 	0
scalar one_cache_scenario_network.node[3].content_store 	decision_no[3] 	66153
scalar one_cache_scenario_network.node[4].core_layer 	interests[4] 	71454
scalar one_cache_scenario_network.node[4].core_layer 	repo_load[4] 	71454
scalar one_cache_scenario_network.node[4].core_layer 	data[4] 	0
scalar one_cache_scenario_network.node[4].content_store 	p_hit[4] 	0
scalar one_cache_scenario_network.node[4].content_store 	hits[4] 	0
scalar one_cache_scenario_network.node[4].content_store 	misses[4] 	71454
scalar one_cache_scenario_network.node[4].content_store 	decision_yes[4] 	0
scalar one_cache_scenario_network.node[4].content_store 	decision_no[4] 	71454
scalar one_cache_scenario_network.client[0] 	hdistance[0] 	1.5337639394328
scalar one_cache_scenario_network.client[0] 	downloads[0] 	179437
scalar one_cache_scenario_network.client[0] 	avg_time[0] 	0
scalar one_cache_scenario_network.client[0] 	interests_sent[0] 	179437
