version 2
run General-1053-20140502-03:05:22-9957
attr D fix0.001
attr F nrr
attr R lru
attr a 0.8
attr configname General
attr csize 1e3
attr ctlg 1e5
attr datetime 20140502-03:05:22
attr experiment General
attr inifile omnetpp.ini
attr iterationvars "$net=three_caches_scenario_3_links, $rep=2, $priceratiovalue=10, $weights=0.2_0.4_0.4, $a=0.8, $ctlg=1e5, $F=nrr, $ttl=1000, $D=fix0.001, $xi=1, $R=lru, $csize=1e3"
attr iterationvars2 "$net=three_caches_scenario_3_links, $rep=2, $priceratiovalue=10, $weights=0.2_0.4_0.4, $a=0.8, $ctlg=1e5, $F=nrr, $ttl=1000, $D=fix0.001, $xi=1, $R=lru, $csize=1e3, $repetition=0"
attr measurement "$net=three_caches_scenario_3_links, $rep=2, $priceratiovalue=10, $weights=0.2_0.4_0.4, $a=0.8, $ctlg=1e5, $F=nrr, $ttl=1000, $D=fix0.001, $xi=1, $R=lru, $csize=1e3"
attr net three_caches_scenario_3_links
attr network networks.${net=three_caches_scenario_3_links}_network
attr priceratiovalue 10
attr processid 9957
attr rep 2
attr repetition 0
attr replication #0
attr resultdir results
attr runnumber 1053
attr seedset 2
attr ttl 1000
attr weights 0.2_0.4_0.4
attr xi 1

scalar . 	a 	0.8
scalar . 	csize 	1e3
scalar . 	ctlg 	1e5
scalar . 	priceratiovalue 	10
scalar . 	rep 	2
scalar . 	ttl 	1000
scalar . 	xi 	1
scalar three_caches_scenario_3_links_network.content_distribution 	repo-0 	4
scalar three_caches_scenario_3_links_network.content_distribution 	repo-1 	5
scalar three_caches_scenario_3_links_network.content_distribution 	repo-2 	6
scalar three_caches_scenario_3_links_network.content_distribution 	client-0 	0
scalar three_caches_scenario_3_links_network.content_distribution 	repo-0_card 	20021
scalar three_caches_scenario_3_links_network.content_distribution 	repo-1_card 	39941
scalar three_caches_scenario_3_links_network.content_distribution 	repo-2_card 	40038
scalar three_caches_scenario_3_links_network.statistics 	p_hit 	0.093668744917322
scalar three_caches_scenario_3_links_network.statistics 	interests 	65875
scalar three_caches_scenario_3_links_network.statistics 	data 	40164.571428571
scalar three_caches_scenario_3_links_network.statistics 	hdistance 	2.1599351013763
scalar three_caches_scenario_3_links_network.statistics 	avg_time 	0
scalar three_caches_scenario_3_links_network.statistics 	downloads 	179973
scalar three_caches_scenario_3_links_network.statistics 	total_cost 	595036
scalar three_caches_scenario_3_links_network.statistics 	total_replicas 	100000
scalar three_caches_scenario_3_links_network.statistics 	interests_sent 	179973
scalar three_caches_scenario_3_links_network.node[0].core_layer 	interests[0] 	179973
scalar three_caches_scenario_3_links_network.node[0].core_layer 	data[0] 	144372
scalar three_caches_scenario_3_links_network.node[0].core_layer 	repo_int[0] 	136780
scalar three_caches_scenario_3_links_network.node[0].content_store 	p_hit[0] 	0.19781300528413
scalar three_caches_scenario_3_links_network.node[0].content_store 	hits[0] 	35601
scalar three_caches_scenario_3_links_network.node[0].content_store 	misses[0] 	144372
scalar three_caches_scenario_3_links_network.node[0].content_store 	decision_yes[0] 	150
scalar three_caches_scenario_3_links_network.node[0].content_store 	decision_no[0] 	144222
scalar three_caches_scenario_3_links_network.node[1].core_layer 	interests[1] 	29202
scalar three_caches_scenario_3_links_network.node[1].core_layer 	data[1] 	29202
scalar three_caches_scenario_3_links_network.node[1].content_store 	p_hit[1] 	0
scalar three_caches_scenario_3_links_network.node[1].content_store 	hits[1] 	0
scalar three_caches_scenario_3_links_network.node[1].content_store 	misses[1] 	29202
scalar three_caches_scenario_3_links_network.node[1].content_store 	decision_yes[1] 	0
scalar three_caches_scenario_3_links_network.node[1].content_store 	decision_no[1] 	29202
scalar three_caches_scenario_3_links_network.node[2].core_layer 	interests[2] 	57153
scalar three_caches_scenario_3_links_network.node[2].core_layer 	data[2] 	53416
scalar three_caches_scenario_3_links_network.node[2].content_store 	p_hit[2] 	0.065385894003814
scalar three_caches_scenario_3_links_network.node[2].content_store 	hits[2] 	3737
scalar three_caches_scenario_3_links_network.node[2].content_store 	misses[2] 	53416
scalar three_caches_scenario_3_links_network.node[2].content_store 	decision_yes[2] 	55
scalar three_caches_scenario_3_links_network.node[2].content_store 	decision_no[2] 	53361
scalar three_caches_scenario_3_links_network.node[3].core_layer 	interests[3] 	58017
scalar three_caches_scenario_3_links_network.node[3].core_layer 	data[3] 	54162
scalar three_caches_scenario_3_links_network.node[3].content_store 	p_hit[3] 	0.066446041677439
scalar three_caches_scenario_3_links_network.node[3].content_store 	hits[3] 	3855
scalar three_caches_scenario_3_links_network.node[3].content_store 	misses[3] 	54162
scalar three_caches_scenario_3_links_network.node[3].content_store 	decision_yes[3] 	61
scalar three_caches_scenario_3_links_network.node[3].content_store 	decision_no[3] 	54101
scalar three_caches_scenario_3_links_network.node[4].core_layer 	interests[4] 	29202
scalar three_caches_scenario_3_links_network.node[4].core_layer 	repo_load[4] 	29202
scalar three_caches_scenario_3_links_network.node[4].core_layer 	data[4] 	0
scalar three_caches_scenario_3_links_network.node[4].content_store 	p_hit[4] 	0
scalar three_caches_scenario_3_links_network.node[4].content_store 	hits[4] 	0
scalar three_caches_scenario_3_links_network.node[4].content_store 	misses[4] 	29202
scalar three_caches_scenario_3_links_network.node[4].content_store 	decision_yes[4] 	0
scalar three_caches_scenario_3_links_network.node[4].content_store 	decision_no[4] 	29202
scalar three_caches_scenario_3_links_network.node[5].core_layer 	interests[5] 	53416
scalar three_caches_scenario_3_links_network.node[5].core_layer 	repo_load[5] 	53416
scalar three_caches_scenario_3_links_network.node[5].core_layer 	data[5] 	0
scalar three_caches_scenario_3_links_network.node[5].content_store 	p_hit[5] 	0
scalar three_caches_scenario_3_links_network.node[5].content_store 	hits[5] 	0
scalar three_caches_scenario_3_links_network.node[5].content_store 	misses[5] 	53416
scalar three_caches_scenario_3_links_network.node[5].content_store 	decision_yes[5] 	0
scalar three_caches_scenario_3_links_network.node[5].content_store 	decision_no[5] 	53416
scalar three_caches_scenario_3_links_network.node[6].core_layer 	interests[6] 	54162
scalar three_caches_scenario_3_links_network.node[6].core_layer 	repo_load[6] 	54162
scalar three_caches_scenario_3_links_network.node[6].core_layer 	data[6] 	0
scalar three_caches_scenario_3_links_network.node[6].content_store 	p_hit[6] 	0
scalar three_caches_scenario_3_links_network.node[6].content_store 	hits[6] 	0
scalar three_caches_scenario_3_links_network.node[6].content_store 	misses[6] 	54162
scalar three_caches_scenario_3_links_network.node[6].content_store 	decision_yes[6] 	0
scalar three_caches_scenario_3_links_network.node[6].content_store 	decision_no[6] 	54162
scalar three_caches_scenario_3_links_network.client[0] 	hdistance[0] 	2.1599351013763
scalar three_caches_scenario_3_links_network.client[0] 	downloads[0] 	179973
scalar three_caches_scenario_3_links_network.client[0] 	avg_time[0] 	0
scalar three_caches_scenario_3_links_network.client[0] 	interests_sent[0] 	179973
