version 2
run General-0-20140510-15:29:34-27707
attr D costprobtailsmart
attr F nrr
attr R lru
attr a 1
attr configname General
attr csize 3
attr ctlg 10
attr datetime 20140510-15:29:34
attr experiment General
attr inifile omnetpp.ini
attr iterationvars "$net=one_cache_scenario_3_links, $rep=1, $priceratiovalue=10, $weights=0.333_0.333_0.334, $a=1, $ctlg=10, $F=nrr, $ttl=1000, $D=costprobtailsmart, $xi=0, $R=lru, $csize=3"
attr iterationvars2 "$net=one_cache_scenario_3_links, $rep=1, $priceratiovalue=10, $weights=0.333_0.333_0.334, $a=1, $ctlg=10, $F=nrr, $ttl=1000, $D=costprobtailsmart, $xi=0, $R=lru, $csize=3, $repetition=0"
attr measurement "$net=one_cache_scenario_3_links, $rep=1, $priceratiovalue=10, $weights=0.333_0.333_0.334, $a=1, $ctlg=10, $F=nrr, $ttl=1000, $D=costprobtailsmart, $xi=0, $R=lru, $csize=3"
attr net one_cache_scenario_3_links
attr network networks.${net=one_cache_scenario_3_links}_network
attr priceratiovalue 10
attr processid 27707
attr rep 1
attr repetition 0
attr replication #0
attr resultdir results
attr runnumber 0
attr seedset 1
attr ttl 1000
attr weights 0.333_0.333_0.334
attr xi 0

scalar . 	a 	1
scalar . 	csize 	3
scalar . 	ctlg 	10
scalar . 	priceratiovalue 	10
scalar . 	rep 	1
scalar . 	ttl 	1000
scalar . 	xi 	0
scalar one_cache_scenario_3_links_network.content_distribution 	repo-0 	4
scalar one_cache_scenario_3_links_network.content_distribution 	repo-1 	5
scalar one_cache_scenario_3_links_network.content_distribution 	repo-2 	6
scalar one_cache_scenario_3_links_network.content_distribution 	client-0 	0
scalar one_cache_scenario_3_links_network.content_distribution 	repo-0_card 	1
scalar one_cache_scenario_3_links_network.content_distribution 	repo-1_card 	3
scalar one_cache_scenario_3_links_network.content_distribution 	repo-2_card 	6
