version 2
run General-1-20140723-21:42:24-7674
attr D costprobprodcorr0.01
attr F nrr
attr R lru
attr a 1
attr configname General
attr csize 5
attr ctlg 1e1
attr datetime 20140723-21:42:24
attr experiment General
attr inifile omnetpp.ini
attr iterationvars "$net=geant_cost, $rep=15, $priceratiovalue=100, $weights=0.333_0.333_0.334, $lambda=100, $a=1, $ctlg=1e1, $F=nrr, $ttl=1000, $D=costprobprodcorr0.01, $xi=1, $R=lru, $csize=5, $pricebits=0, $window=60, $variance=0.05, $mytime=1800"
attr iterationvars2 "$net=geant_cost, $rep=15, $priceratiovalue=100, $weights=0.333_0.333_0.334, $lambda=100, $a=1, $ctlg=1e1, $F=nrr, $ttl=1000, $D=costprobprodcorr0.01, $xi=1, $R=lru, $csize=5, $pricebits=0, $window=60, $variance=0.05, $mytime=1800, $repetition=0"
attr lambda 100
attr measurement "$net=geant_cost, $rep=15, $priceratiovalue=100, $weights=0.333_0.333_0.334, $lambda=100, $a=1, $ctlg=1e1, $F=nrr, $ttl=1000, $D=costprobprodcorr0.01, $xi=1, $R=lru, $csize=5, $pricebits=0, $window=60, $variance=0.05, $mytime=1800"
attr mytime 1800
attr net geant_cost
attr network networks.${net=geant_cost}_network
attr pricebits 0
attr priceratiovalue 100
attr processid 7674
attr rep 15
attr repetition 0
attr replication #0
attr resultdir results
attr runnumber 1
attr seedset 15
attr ttl 1000
attr variance 0.05
attr weights 0.333_0.333_0.334
attr window 60
attr xi 1

scalar . 	a 	1
scalar . 	csize 	5
scalar . 	ctlg 	1e1
scalar . 	lambda 	100
scalar . 	mytime 	1800
scalar . 	pricebits 	0
scalar . 	priceratiovalue 	100
scalar . 	rep 	15
scalar . 	ttl 	1000
scalar . 	variance 	0.05
scalar . 	window 	60
scalar . 	xi 	1
scalar geant_cost_network.content_distribution 	repo-0 	22
scalar geant_cost_network.content_distribution 	repo-1 	23
scalar geant_cost_network.content_distribution 	repo-2 	24
scalar geant_cost_network.content_distribution 	client-0 	20
scalar geant_cost_network.content_distribution 	client-1 	10
scalar geant_cost_network.content_distribution 	client-2 	12
scalar geant_cost_network.content_distribution 	client-3 	9
scalar geant_cost_network.content_distribution 	client-4 	5
scalar geant_cost_network.content_distribution 	repo-0_card 	4
scalar geant_cost_network.content_distribution 	repo-1_card 	1
scalar geant_cost_network.content_distribution 	repo-2_card 	5
scalar geant_cost_network.statistics 	popularity_indication[0] 	0.93611111111111
scalar geant_cost_network.statistics 	repo_popularity[0] 	0.3196043896491
scalar geant_cost_network.statistics 	popularity_indication[1] 	0.33333333333333
scalar geant_cost_network.statistics 	repo_popularity[1] 	0.11380571738247
scalar geant_cost_network.statistics 	popularity_indication[2] 	1.6595238095238
scalar geant_cost_network.statistics 	repo_popularity[2] 	0.56658989296843
scalar geant_cost_network.node[7].face$o[4].channel 	price[7] 	0
scalar geant_cost_network.node[7].face$o[4].channel 	represented_price[7] 	0
scalar geant_cost_network.node[8].face$o[3].channel 	price[8] 	0
scalar geant_cost_network.node[8].face$o[3].channel 	represented_price[8] 	0
scalar geant_cost_network.node[21].face$o[5].channel 	price[21] 	0
scalar geant_cost_network.node[21].face$o[5].channel 	represented_price[21] 	0
scalar geant_cost_network.node[22].face$o[1].channel 	price[22] 	0
scalar geant_cost_network.node[22].face$o[1].channel 	represented_price[22] 	0
scalar geant_cost_network.node[23].face$o[1].channel 	price[23] 	1
scalar geant_cost_network.node[23].face$o[1].channel 	represented_price[23] 	1
scalar geant_cost_network.node[24].face$o[1].channel 	price[24] 	100
scalar geant_cost_network.node[24].face$o[1].channel 	represented_price[24] 	100
scalar geant_cost_network.statistics 	p_hit 	0.15326980984674
scalar geant_cost_network.statistics 	interests 	433368.32
scalar geant_cost_network.statistics 	data 	303992.12
scalar geant_cost_network.statistics 	hdistance 	3.3465104109682
scalar geant_cost_network.statistics 	avg_time 	0.0066687536
scalar geant_cost_network.statistics 	downloads 	2871781
scalar geant_cost_network.statistics 	total_cost 	15582
scalar geant_cost_network.statistics 	total_cost_other 	0
scalar geant_cost_network.statistics 	total_replicas 	10
scalar geant_cost_network.statistics 	inner_hit 	0.67119254567114
scalar geant_cost_network.statistics 	interests_sent 	3234397
scalar geant_cost_network.node[0].core_layer 	interests[0] 	0
scalar geant_cost_network.node[0].core_layer 	data[0] 	0
scalar geant_cost_network.node[0].core_layer 	repo_int[0] 	944263
scalar geant_cost_network.node[0].content_store 	p_hit[0] 	-nan
scalar geant_cost_network.node[0].content_store 	hits[0] 	0
scalar geant_cost_network.node[0].content_store 	misses[0] 	0
scalar geant_cost_network.node[0].content_store 	decision_yes[0] 	0
scalar geant_cost_network.node[0].content_store 	decision_no[0] 	0
scalar geant_cost_network.node[0].content_store 	decision_ratio[0] 	0
scalar geant_cost_network.node[0].content_store 	correction_factor[0] 	0.00029644561705155
scalar geant_cost_network.node[0].content_store 	xi[0] 	1
scalar geant_cost_network.node[1].core_layer 	interests[1] 	0
scalar geant_cost_network.node[1].core_layer 	data[1] 	0
scalar geant_cost_network.node[1].content_store 	p_hit[1] 	-nan
scalar geant_cost_network.node[1].content_store 	hits[1] 	0
scalar geant_cost_network.node[1].content_store 	misses[1] 	0
scalar geant_cost_network.node[1].content_store 	decision_yes[1] 	0
scalar geant_cost_network.node[1].content_store 	decision_no[1] 	0
scalar geant_cost_network.node[1].content_store 	decision_ratio[1] 	0
scalar geant_cost_network.node[1].content_store 	correction_factor[1] 	0.00029644561705155
scalar geant_cost_network.node[1].content_store 	xi[1] 	1
scalar geant_cost_network.node[2].core_layer 	interests[2] 	0
scalar geant_cost_network.node[2].core_layer 	data[2] 	0
scalar geant_cost_network.node[2].content_store 	p_hit[2] 	-nan
scalar geant_cost_network.node[2].content_store 	hits[2] 	0
scalar geant_cost_network.node[2].content_store 	misses[2] 	0
scalar geant_cost_network.node[2].content_store 	decision_yes[2] 	0
scalar geant_cost_network.node[2].content_store 	decision_no[2] 	0
scalar geant_cost_network.node[2].content_store 	decision_ratio[2] 	0
scalar geant_cost_network.node[2].content_store 	correction_factor[2] 	0.00029644561705155
scalar geant_cost_network.node[2].content_store 	xi[2] 	1
scalar geant_cost_network.node[3].core_layer 	interests[3] 	916141
scalar geant_cost_network.node[3].core_layer 	data[3] 	808991
scalar geant_cost_network.node[3].content_store 	p_hit[3] 	0.11695361303555
scalar geant_cost_network.node[3].content_store 	hits[3] 	107146
scalar geant_cost_network.node[3].content_store 	misses[3] 	808995
scalar geant_cost_network.node[3].content_store 	decision_yes[3] 	1
scalar geant_cost_network.node[3].content_store 	decision_no[3] 	808989
scalar geant_cost_network.node[3].content_store 	decision_ratio[3] 	1.2361092226109e-06
scalar geant_cost_network.node[3].content_store 	correction_factor[3] 	0.00029644561705155
scalar geant_cost_network.node[3].content_store 	xi[3] 	1
scalar geant_cost_network.node[4].core_layer 	interests[4] 	951496
scalar geant_cost_network.node[4].core_layer 	data[4] 	891478
scalar geant_cost_network.node[4].content_store 	p_hit[4] 	0.055290826235738
scalar geant_cost_network.node[4].content_store 	hits[4] 	52609
scalar geant_cost_network.node[4].content_store 	misses[4] 	898887
scalar geant_cost_network.node[4].content_store 	decision_yes[4] 	2
scalar geant_cost_network.node[4].content_store 	decision_no[4] 	891476
scalar geant_cost_network.node[4].content_store 	decision_ratio[4] 	2.2434653463125e-06
scalar geant_cost_network.node[4].content_store 	correction_factor[4] 	0.00029644561705155
scalar geant_cost_network.node[4].content_store 	xi[4] 	1
scalar geant_cost_network.node[5].core_layer 	interests[5] 	759554
scalar geant_cost_network.node[5].core_layer 	data[5] 	512113
scalar geant_cost_network.node[5].content_store 	p_hit[5] 	0.18922551918626
scalar geant_cost_network.node[5].content_store 	hits[5] 	143727
scalar geant_cost_network.node[5].content_store 	misses[5] 	615827
scalar geant_cost_network.node[5].content_store 	decision_yes[5] 	1
scalar geant_cost_network.node[5].content_store 	decision_no[5] 	512112
scalar geant_cost_network.node[5].content_store 	decision_ratio[5] 	1.9526940343245e-06
scalar geant_cost_network.node[5].content_store 	correction_factor[5] 	0.00029644561705155
scalar geant_cost_network.node[5].content_store 	xi[5] 	1
scalar geant_cost_network.node[6].core_layer 	interests[6] 	187248
scalar geant_cost_network.node[6].core_layer 	data[6] 	187248
scalar geant_cost_network.node[6].content_store 	p_hit[6] 	0
scalar geant_cost_network.node[6].content_store 	hits[6] 	0
scalar geant_cost_network.node[6].content_store 	misses[6] 	187248
scalar geant_cost_network.node[6].content_store 	decision_yes[6] 	0
scalar geant_cost_network.node[6].content_store 	decision_no[6] 	187248
scalar geant_cost_network.node[6].content_store 	decision_ratio[6] 	0
scalar geant_cost_network.node[6].content_store 	correction_factor[6] 	0.00029644561705155
scalar geant_cost_network.node[6].content_store 	xi[6] 	1
scalar geant_cost_network.node[7].core_layer 	interests[7] 	1008446
scalar geant_cost_network.node[7].core_layer 	data[7] 	1008441
scalar geant_cost_network.node[7].content_store 	p_hit[7] 	0
scalar geant_cost_network.node[7].content_store 	hits[7] 	0
scalar geant_cost_network.node[7].content_store 	misses[7] 	1008446
scalar geant_cost_network.node[7].content_store 	decision_yes[7] 	0
scalar geant_cost_network.node[7].content_store 	decision_no[7] 	1008441
scalar geant_cost_network.node[7].content_store 	decision_ratio[7] 	0
scalar geant_cost_network.node[7].content_store 	correction_factor[7] 	0.00029644561705155
scalar geant_cost_network.node[7].content_store 	xi[7] 	1
scalar geant_cost_network.node[8].core_layer 	interests[8] 	446162
scalar geant_cost_network.node[8].core_layer 	data[8] 	446162
scalar geant_cost_network.node[8].content_store 	p_hit[8] 	0
scalar geant_cost_network.node[8].content_store 	hits[8] 	0
scalar geant_cost_network.node[8].content_store 	misses[8] 	446162
scalar geant_cost_network.node[8].content_store 	decision_yes[8] 	0
scalar geant_cost_network.node[8].content_store 	decision_no[8] 	446162
scalar geant_cost_network.node[8].content_store 	decision_ratio[8] 	0
scalar geant_cost_network.node[8].content_store 	correction_factor[8] 	0.00029644561705155
scalar geant_cost_network.node[8].content_store 	xi[8] 	1
scalar geant_cost_network.node[9].core_layer 	interests[9] 	1408962
scalar geant_cost_network.node[9].core_layer 	data[9] 	891474
scalar geant_cost_network.node[9].content_store 	p_hit[9] 	0.24589165641089
scalar geant_cost_network.node[9].content_store 	hits[9] 	346452
scalar geant_cost_network.node[9].content_store 	misses[9] 	1062510
scalar geant_cost_network.node[9].content_store 	decision_yes[9] 	2
scalar geant_cost_network.node[9].content_store 	decision_no[9] 	891472
scalar geant_cost_network.node[9].content_store 	decision_ratio[9] 	2.2434754126312e-06
scalar geant_cost_network.node[9].content_store 	correction_factor[9] 	0.00029644561705155
scalar geant_cost_network.node[9].content_store 	xi[9] 	1
scalar geant_cost_network.node[10].core_layer 	interests[10] 	645990
scalar geant_cost_network.node[10].core_layer 	data[10] 	561662
scalar geant_cost_network.node[10].content_store 	p_hit[10] 	0
scalar geant_cost_network.node[10].content_store 	hits[10] 	0
scalar geant_cost_network.node[10].content_store 	misses[10] 	645990
scalar geant_cost_network.node[10].content_store 	decision_yes[10] 	0
scalar geant_cost_network.node[10].content_store 	decision_no[10] 	561662
scalar geant_cost_network.node[10].content_store 	decision_ratio[10] 	0
scalar geant_cost_network.node[10].content_store 	correction_factor[10] 	0.00029644561705155
scalar geant_cost_network.node[10].content_store 	xi[10] 	1
scalar geant_cost_network.node[11].core_layer 	interests[11] 	0
scalar geant_cost_network.node[11].core_layer 	data[11] 	0
scalar geant_cost_network.node[11].content_store 	p_hit[11] 	-nan
scalar geant_cost_network.node[11].content_store 	hits[11] 	0
scalar geant_cost_network.node[11].content_store 	misses[11] 	0
scalar geant_cost_network.node[11].content_store 	decision_yes[11] 	0
scalar geant_cost_network.node[11].content_store 	decision_no[11] 	0
scalar geant_cost_network.node[11].content_store 	decision_ratio[11] 	0
scalar geant_cost_network.node[11].content_store 	correction_factor[11] 	0.00029644561705155
scalar geant_cost_network.node[11].content_store 	xi[11] 	1
scalar geant_cost_network.node[12].core_layer 	interests[12] 	1239684
scalar geant_cost_network.node[12].core_layer 	data[12] 	907994
scalar geant_cost_network.node[12].content_store 	p_hit[12] 	0.10197598742905
scalar geant_cost_network.node[12].content_store 	hits[12] 	126418
scalar geant_cost_network.node[12].content_store 	misses[12] 	1113266
scalar geant_cost_network.node[12].content_store 	decision_yes[12] 	2
scalar geant_cost_network.node[12].content_store 	decision_no[12] 	907991
scalar geant_cost_network.node[12].content_store 	decision_ratio[12] 	2.2026601526664e-06
scalar geant_cost_network.node[12].content_store 	correction_factor[12] 	0.00029644561705155
scalar geant_cost_network.node[12].content_store 	xi[12] 	1
scalar geant_cost_network.node[13].core_layer 	interests[13] 	0
scalar geant_cost_network.node[13].core_layer 	data[13] 	0
scalar geant_cost_network.node[13].content_store 	p_hit[13] 	-nan
scalar geant_cost_network.node[13].content_store 	hits[13] 	0
scalar geant_cost_network.node[13].content_store 	misses[13] 	0
scalar geant_cost_network.node[13].content_store 	decision_yes[13] 	0
scalar geant_cost_network.node[13].content_store 	decision_no[13] 	0
scalar geant_cost_network.node[13].content_store 	decision_ratio[13] 	0
scalar geant_cost_network.node[13].content_store 	correction_factor[13] 	0.00029644561705155
scalar geant_cost_network.node[13].content_store 	xi[13] 	1
scalar geant_cost_network.node[14].core_layer 	interests[14] 	231767
scalar geant_cost_network.node[14].core_layer 	data[14] 	231767
scalar geant_cost_network.node[14].content_store 	p_hit[14] 	0
scalar geant_cost_network.node[14].content_store 	hits[14] 	0
scalar geant_cost_network.node[14].content_store 	misses[14] 	231767
scalar geant_cost_network.node[14].content_store 	decision_yes[14] 	0
scalar geant_cost_network.node[14].content_store 	decision_no[14] 	231767
scalar geant_cost_network.node[14].content_store 	decision_ratio[14] 	0
scalar geant_cost_network.node[14].content_store 	correction_factor[14] 	0.00029644561705155
scalar geant_cost_network.node[14].content_store 	xi[14] 	1
scalar geant_cost_network.node[15].core_layer 	interests[15] 	0
scalar geant_cost_network.node[15].core_layer 	data[15] 	0
scalar geant_cost_network.node[15].content_store 	p_hit[15] 	-nan
scalar geant_cost_network.node[15].content_store 	hits[15] 	0
scalar geant_cost_network.node[15].content_store 	misses[15] 	0
scalar geant_cost_network.node[15].content_store 	decision_yes[15] 	0
scalar geant_cost_network.node[15].content_store 	decision_no[15] 	0
scalar geant_cost_network.node[15].content_store 	decision_ratio[15] 	0
scalar geant_cost_network.node[15].content_store 	correction_factor[15] 	0.00029644561705155
scalar geant_cost_network.node[15].content_store 	xi[15] 	1
scalar geant_cost_network.node[16].core_layer 	interests[16] 	0
scalar geant_cost_network.node[16].core_layer 	data[16] 	0
scalar geant_cost_network.node[16].content_store 	p_hit[16] 	-nan
scalar geant_cost_network.node[16].content_store 	hits[16] 	0
scalar geant_cost_network.node[16].content_store 	misses[16] 	0
scalar geant_cost_network.node[16].content_store 	decision_yes[16] 	0
scalar geant_cost_network.node[16].content_store 	decision_no[16] 	0
scalar geant_cost_network.node[16].content_store 	decision_ratio[16] 	0
scalar geant_cost_network.node[16].content_store 	correction_factor[16] 	0.00029644561705155
scalar geant_cost_network.node[16].content_store 	xi[16] 	1
scalar geant_cost_network.node[17].core_layer 	interests[17] 	0
scalar geant_cost_network.node[17].core_layer 	data[17] 	0
scalar geant_cost_network.node[17].content_store 	p_hit[17] 	-nan
scalar geant_cost_network.node[17].content_store 	hits[17] 	0
scalar geant_cost_network.node[17].content_store 	misses[17] 	0
scalar geant_cost_network.node[17].content_store 	decision_yes[17] 	0
scalar geant_cost_network.node[17].content_store 	decision_no[17] 	0
scalar geant_cost_network.node[17].content_store 	decision_ratio[17] 	0
scalar geant_cost_network.node[17].content_store 	correction_factor[17] 	0.00029644561705155
scalar geant_cost_network.node[17].content_store 	xi[17] 	1
scalar geant_cost_network.node[18].core_layer 	interests[18] 	783439
scalar geant_cost_network.node[18].core_layer 	data[18] 	759549
scalar geant_cost_network.node[18].content_store 	p_hit[18] 	0
scalar geant_cost_network.node[18].content_store 	hits[18] 	0
scalar geant_cost_network.node[18].content_store 	misses[18] 	783439
scalar geant_cost_network.node[18].content_store 	decision_yes[18] 	0
scalar geant_cost_network.node[18].content_store 	decision_no[18] 	759549
scalar geant_cost_network.node[18].content_store 	decision_ratio[18] 	0
scalar geant_cost_network.node[18].content_store 	correction_factor[18] 	0.00029644561705155
scalar geant_cost_network.node[18].content_store 	xi[18] 	1
scalar geant_cost_network.node[19].core_layer 	interests[19] 	0
scalar geant_cost_network.node[19].core_layer 	data[19] 	0
scalar geant_cost_network.node[19].content_store 	p_hit[19] 	-nan
scalar geant_cost_network.node[19].content_store 	hits[19] 	0
scalar geant_cost_network.node[19].content_store 	misses[19] 	0
scalar geant_cost_network.node[19].content_store 	decision_yes[19] 	0
scalar geant_cost_network.node[19].content_store 	decision_no[19] 	0
scalar geant_cost_network.node[19].content_store 	decision_ratio[19] 	0
scalar geant_cost_network.node[19].content_store 	correction_factor[19] 	0.00029644561705155
scalar geant_cost_network.node[19].content_store 	xi[19] 	1
scalar geant_cost_network.node[20].core_layer 	interests[20] 	1069302
scalar geant_cost_network.node[20].core_layer 	data[20] 	392770
scalar geant_cost_network.node[20].content_store 	p_hit[20] 	0.60095744700749
scalar geant_cost_network.node[20].content_store 	hits[20] 	642605
scalar geant_cost_network.node[20].content_store 	misses[20] 	426697
scalar geant_cost_network.node[20].content_store 	decision_yes[20] 	3
scalar geant_cost_network.node[20].content_store 	decision_no[20] 	392767
scalar geant_cost_network.node[20].content_store 	decision_ratio[20] 	7.6380578964789e-06
scalar geant_cost_network.node[20].content_store 	correction_factor[20] 	0.00029644561705155
scalar geant_cost_network.node[20].content_store 	xi[20] 	1
scalar geant_cost_network.node[21].core_layer 	interests[21] 	241754
scalar geant_cost_network.node[21].core_layer 	data[21] 	154
scalar geant_cost_network.node[21].content_store 	p_hit[21] 	0.99936298882335
scalar geant_cost_network.node[21].content_store 	hits[21] 	241600
scalar geant_cost_network.node[21].content_store 	misses[21] 	154
scalar geant_cost_network.node[21].content_store 	decision_yes[21] 	5
scalar geant_cost_network.node[21].content_store 	decision_no[21] 	149
scalar geant_cost_network.node[21].content_store 	decision_ratio[21] 	0.032467532467532
scalar geant_cost_network.node[21].content_store 	correction_factor[21] 	0.00029644561705155
scalar geant_cost_network.node[21].content_store 	xi[21] 	1
scalar geant_cost_network.node[22].core_layer 	interests[22] 	943927
scalar geant_cost_network.node[22].core_layer 	repo_load[22] 	943927
scalar geant_cost_network.node[22].core_layer 	data[22] 	0
scalar geant_cost_network.node[22].content_store 	p_hit[22] 	0
scalar geant_cost_network.node[22].content_store 	hits[22] 	0
scalar geant_cost_network.node[22].content_store 	misses[22] 	943927
scalar geant_cost_network.node[22].content_store 	decision_yes[22] 	0
scalar geant_cost_network.node[22].content_store 	decision_no[22] 	943927
scalar geant_cost_network.node[22].content_store 	decision_ratio[22] 	0
scalar geant_cost_network.node[23].core_layer 	interests[23] 	182
scalar geant_cost_network.node[23].core_layer 	repo_load[23] 	182
scalar geant_cost_network.node[23].core_layer 	data[23] 	0
scalar geant_cost_network.node[23].content_store 	p_hit[23] 	0
scalar geant_cost_network.node[23].content_store 	hits[23] 	0
scalar geant_cost_network.node[23].content_store 	misses[23] 	182
scalar geant_cost_network.node[23].content_store 	decision_yes[23] 	0
scalar geant_cost_network.node[23].content_store 	decision_no[23] 	182
scalar geant_cost_network.node[23].content_store 	decision_ratio[23] 	0
scalar geant_cost_network.node[24].core_layer 	interests[24] 	154
scalar geant_cost_network.node[24].core_layer 	repo_load[24] 	154
scalar geant_cost_network.node[24].core_layer 	data[24] 	0
scalar geant_cost_network.node[24].content_store 	p_hit[24] 	0
scalar geant_cost_network.node[24].content_store 	hits[24] 	0
scalar geant_cost_network.node[24].content_store 	misses[24] 	154
scalar geant_cost_network.node[24].content_store 	decision_yes[24] 	0
scalar geant_cost_network.node[24].content_store 	decision_no[24] 	154
scalar geant_cost_network.node[24].content_store 	decision_ratio[24] 	0
scalar geant_cost_network.client[5] 	hdistance[5] 	2.9322299154966
scalar geant_cost_network.client[5] 	downloads[5] 	543765
scalar geant_cost_network.client[5] 	avg_time[5] 	0.009347423268
scalar geant_cost_network.client[5] 	interests_sent[5] 	647479
scalar geant_cost_network.client[9] 	hdistance[9] 	3.4554813279159
scalar geant_cost_network.client[9] 	downloads[9] 	576904
scalar geant_cost_network.client[9] 	avg_time[9] 	0.00541775254
scalar geant_cost_network.client[9] 	interests_sent[9] 	646740
scalar geant_cost_network.client[10] 	hdistance[10] 	4.44040187871
scalar geant_cost_network.client[10] 	downloads[10] 	561662
scalar geant_cost_network.client[10] 	avg_time[10] 	0.007136446226
scalar geant_cost_network.client[10] 	interests_sent[10] 	645990
scalar geant_cost_network.client[12] 	hdistance[12] 	3.3982984875445
scalar geant_cost_network.client[12] 	downloads[12] 	575488
scalar geant_cost_network.client[12] 	avg_time[12] 	0.005759265712
scalar geant_cost_network.client[12] 	interests_sent[12] 	646299
scalar geant_cost_network.client[20] 	hdistance[20] 	2.5061404451741
scalar geant_cost_network.client[20] 	downloads[20] 	613962
scalar geant_cost_network.client[20] 	avg_time[20] 	0.005682880254
scalar geant_cost_network.client[20] 	interests_sent[20] 	647889
