version 2
run General-22-20140428-20:04:05-9253
attr D fix0.01
attr F nrr
attr R lru
attr a 1.2
attr configname General
attr csize 1000
attr ctlg 10^5
attr datetime 20140428-20:04:05
attr experiment General
attr inifile omnetpp.ini
attr iterationvars "$net=one_cache_scenario_with_free_link, $rep=2, $priceratiovalue=2, $a=1.2, $ctlg=10^5, $F=nrr, $ttl=1000, $D=fix0.01, $xi=1, $R=lru, $csize=1000"
attr iterationvars2 "$net=one_cache_scenario_with_free_link, $rep=2, $priceratiovalue=2, $a=1.2, $ctlg=10^5, $F=nrr, $ttl=1000, $D=fix0.01, $xi=1, $R=lru, $csize=1000, $repetition=0"
attr measurement "$net=one_cache_scenario_with_free_link, $rep=2, $priceratiovalue=2, $a=1.2, $ctlg=10^5, $F=nrr, $ttl=1000, $D=fix0.01, $xi=1, $R=lru, $csize=1000"
attr net one_cache_scenario_with_free_link
attr network networks.${net=one_cache_scenario_with_free_link}_network
attr priceratiovalue 2
attr processid 9253
attr rep 2
attr repetition 0
attr replication #0
attr resultdir results
attr runnumber 22
attr seedset 2
attr ttl 1000
attr xi 1

scalar . 	a 	1.2
scalar . 	csize 	1000
scalar . 	priceratiovalue 	2
scalar . 	rep 	2
scalar . 	ttl 	1000
scalar . 	xi 	1
scalar one_cache_scenario_with_free_link_network.content_distribution 	repo-0 	3
scalar one_cache_scenario_with_free_link_network.content_distribution 	repo-1 	4
scalar one_cache_scenario_with_free_link_network.content_distribution 	client-0 	0
scalar one_cache_scenario_with_free_link_network.content_distribution 	repo-0_card 	50289
scalar one_cache_scenario_with_free_link_network.content_distribution 	repo-1_card 	49711
scalar one_cache_scenario_with_free_link_network.statistics 	p_hit 	0.58097998652939
scalar one_cache_scenario_with_free_link_network.statistics 	interests 	49886.4
scalar one_cache_scenario_with_free_link_network.statistics 	data 	13935.6
scalar one_cache_scenario_with_free_link_network.statistics 	hdistance 	0.38762976067292
scalar one_cache_scenario_with_free_link_network.statistics 	avg_time 	0
scalar one_cache_scenario_with_free_link_network.statistics 	downloads 	179754
scalar one_cache_scenario_with_free_link_network.statistics 	total_cost 	17468
scalar one_cache_scenario_with_free_link_network.statistics 	interests_sent 	179754
scalar one_cache_scenario_with_free_link_network.node[0].core_layer 	interests[0] 	179754
scalar one_cache_scenario_with_free_link_network.node[0].core_layer 	data[0] 	34839
scalar one_cache_scenario_with_free_link_network.node[0].core_layer 	repo_int[0] 	34839
scalar one_cache_scenario_with_free_link_network.node[0].content_store 	p_hit[0] 	0.80618511966354
scalar one_cache_scenario_with_free_link_network.node[0].content_store 	hits[0] 	144915
scalar one_cache_scenario_with_free_link_network.node[0].content_store 	misses[0] 	34839
scalar one_cache_scenario_with_free_link_network.node[0].content_store 	decision_yes[0] 	380
scalar one_cache_scenario_with_free_link_network.node[0].content_store 	decision_no[0] 	34459
scalar one_cache_scenario_with_free_link_network.node[1].core_layer 	interests[1] 	17371
scalar one_cache_scenario_with_free_link_network.node[1].core_layer 	data[1] 	17371
scalar one_cache_scenario_with_free_link_network.node[1].content_store 	p_hit[1] 	0
scalar one_cache_scenario_with_free_link_network.node[1].content_store 	hits[1] 	0
scalar one_cache_scenario_with_free_link_network.node[1].content_store 	misses[1] 	17371
scalar one_cache_scenario_with_free_link_network.node[1].content_store 	decision_yes[1] 	0
scalar one_cache_scenario_with_free_link_network.node[1].content_store 	decision_no[1] 	17371
scalar one_cache_scenario_with_free_link_network.node[2].core_layer 	interests[2] 	17468
scalar one_cache_scenario_with_free_link_network.node[2].core_layer 	data[2] 	17468
scalar one_cache_scenario_with_free_link_network.node[2].content_store 	p_hit[2] 	0
scalar one_cache_scenario_with_free_link_network.node[2].content_store 	hits[2] 	0
scalar one_cache_scenario_with_free_link_network.node[2].content_store 	misses[2] 	17468
scalar one_cache_scenario_with_free_link_network.node[2].content_store 	decision_yes[2] 	0
scalar one_cache_scenario_with_free_link_network.node[2].content_store 	decision_no[2] 	17468
scalar one_cache_scenario_with_free_link_network.node[3].core_layer 	interests[3] 	17371
scalar one_cache_scenario_with_free_link_network.node[3].core_layer 	repo_load[3] 	17371
scalar one_cache_scenario_with_free_link_network.node[3].core_layer 	data[3] 	0
scalar one_cache_scenario_with_free_link_network.node[3].content_store 	p_hit[3] 	0
scalar one_cache_scenario_with_free_link_network.node[3].content_store 	hits[3] 	0
scalar one_cache_scenario_with_free_link_network.node[3].content_store 	misses[3] 	17371
scalar one_cache_scenario_with_free_link_network.node[3].content_store 	decision_yes[3] 	0
scalar one_cache_scenario_with_free_link_network.node[3].content_store 	decision_no[3] 	17371
scalar one_cache_scenario_with_free_link_network.node[4].core_layer 	interests[4] 	17468
scalar one_cache_scenario_with_free_link_network.node[4].core_layer 	repo_load[4] 	17468
scalar one_cache_scenario_with_free_link_network.node[4].core_layer 	data[4] 	0
scalar one_cache_scenario_with_free_link_network.node[4].content_store 	p_hit[4] 	0
scalar one_cache_scenario_with_free_link_network.node[4].content_store 	hits[4] 	0
scalar one_cache_scenario_with_free_link_network.node[4].content_store 	misses[4] 	17468
scalar one_cache_scenario_with_free_link_network.node[4].content_store 	decision_yes[4] 	0
scalar one_cache_scenario_with_free_link_network.node[4].content_store 	decision_no[4] 	17468
scalar one_cache_scenario_with_free_link_network.client[0] 	hdistance[0] 	0.38762976067292
scalar one_cache_scenario_with_free_link_network.client[0] 	downloads[0] 	179754
scalar one_cache_scenario_with_free_link_network.client[0] 	avg_time[0] 	0
scalar one_cache_scenario_with_free_link_network.client[0] 	interests_sent[0] 	179754
