version 2
run General-2590-20140502-06:02:38-11544
attr D costprob0.005
attr F nrr
attr R lru
attr a 1.2
attr configname General
attr csize 1e3
attr ctlg 1e5
attr datetime 20140502-06:02:38
attr experiment General
attr inifile omnetpp.ini
attr iterationvars "$net=three_caches_scenario_3_links, $rep=5, $priceratiovalue=2, $weights=0_0.5_0.5, $a=1.2, $ctlg=1e5, $F=nrr, $ttl=1000, $D=costprob0.005, $xi=1, $R=lru, $csize=1e3"
attr iterationvars2 "$net=three_caches_scenario_3_links, $rep=5, $priceratiovalue=2, $weights=0_0.5_0.5, $a=1.2, $ctlg=1e5, $F=nrr, $ttl=1000, $D=costprob0.005, $xi=1, $R=lru, $csize=1e3, $repetition=0"
attr measurement "$net=three_caches_scenario_3_links, $rep=5, $priceratiovalue=2, $weights=0_0.5_0.5, $a=1.2, $ctlg=1e5, $F=nrr, $ttl=1000, $D=costprob0.005, $xi=1, $R=lru, $csize=1e3"
attr net three_caches_scenario_3_links
attr network networks.${net=three_caches_scenario_3_links}_network
attr priceratiovalue 2
attr processid 11544
attr rep 5
attr repetition 0
attr replication #0
attr resultdir results
attr runnumber 2590
attr seedset 5
attr ttl 1000
attr weights 0_0.5_0.5
attr xi 1

scalar . 	a 	1.2
scalar . 	csize 	1e3
scalar . 	ctlg 	1e5
scalar . 	priceratiovalue 	2
scalar . 	rep 	5
scalar . 	ttl 	1000
scalar . 	xi 	1
scalar three_caches_scenario_3_links_network.content_distribution 	repo-0 	4
scalar three_caches_scenario_3_links_network.content_distribution 	repo-1 	5
scalar three_caches_scenario_3_links_network.content_distribution 	repo-2 	6
scalar three_caches_scenario_3_links_network.content_distribution 	client-0 	0
scalar three_caches_scenario_3_links_network.content_distribution 	repo-0_card 	0
scalar three_caches_scenario_3_links_network.content_distribution 	repo-1_card 	49909
scalar three_caches_scenario_3_links_network.content_distribution 	repo-2_card 	50091
scalar three_caches_scenario_3_links_network.statistics 	p_hit 	0.4205606152486
scalar three_caches_scenario_3_links_network.statistics 	interests 	50414
scalar three_caches_scenario_3_links_network.statistics 	data 	24648
scalar three_caches_scenario_3_links_network.statistics 	hdistance 	1.1337365964006
scalar three_caches_scenario_3_links_network.statistics 	avg_time 	0
scalar three_caches_scenario_3_links_network.statistics 	downloads 	180362
scalar three_caches_scenario_3_links_network.statistics 	total_cost 	47143
scalar three_caches_scenario_3_links_network.statistics 	total_replicas 	100000
scalar three_caches_scenario_3_links_network.statistics 	interests_sent 	180362
scalar three_caches_scenario_3_links_network.node[0].core_layer 	interests[0] 	180362
scalar three_caches_scenario_3_links_network.node[0].core_layer 	data[0] 	140589
scalar three_caches_scenario_3_links_network.node[0].core_layer 	repo_int[0] 	31947
scalar three_caches_scenario_3_links_network.node[0].content_store 	p_hit[0] 	0.22051762566394
scalar three_caches_scenario_3_links_network.node[0].content_store 	hits[0] 	39773
scalar three_caches_scenario_3_links_network.node[0].content_store 	misses[0] 	140589
scalar three_caches_scenario_3_links_network.node[0].content_store 	decision_yes[0] 	172
scalar three_caches_scenario_3_links_network.node[0].content_store 	decision_no[0] 	140417
scalar three_caches_scenario_3_links_network.node[1].core_layer 	interests[1] 	0
scalar three_caches_scenario_3_links_network.node[1].core_layer 	data[1] 	0
scalar three_caches_scenario_3_links_network.node[1].content_store 	p_hit[1] 	-nan
scalar three_caches_scenario_3_links_network.node[1].content_store 	hits[1] 	0
scalar three_caches_scenario_3_links_network.node[1].content_store 	misses[1] 	0
scalar three_caches_scenario_3_links_network.node[1].content_store 	decision_yes[1] 	0
scalar three_caches_scenario_3_links_network.node[1].content_store 	decision_no[1] 	0
scalar three_caches_scenario_3_links_network.node[2].core_layer 	interests[2] 	101508
scalar three_caches_scenario_3_links_network.node[2].core_layer 	data[2] 	16751
scalar three_caches_scenario_3_links_network.node[2].content_store 	p_hit[2] 	0.83497852386019
scalar three_caches_scenario_3_links_network.node[2].content_store 	hits[2] 	84757
scalar three_caches_scenario_3_links_network.node[2].content_store 	misses[2] 	16751
scalar three_caches_scenario_3_links_network.node[2].content_store 	decision_yes[2] 	51
scalar three_caches_scenario_3_links_network.node[2].content_store 	decision_no[2] 	16700
scalar three_caches_scenario_3_links_network.node[3].core_layer 	interests[3] 	39081
scalar three_caches_scenario_3_links_network.node[3].core_layer 	data[3] 	15196
scalar three_caches_scenario_3_links_network.node[3].content_store 	p_hit[3] 	0.6111665515212
scalar three_caches_scenario_3_links_network.node[3].content_store 	hits[3] 	23885
scalar three_caches_scenario_3_links_network.node[3].content_store 	misses[3] 	15196
scalar three_caches_scenario_3_links_network.node[3].content_store 	decision_yes[3] 	110
scalar three_caches_scenario_3_links_network.node[3].content_store 	decision_no[3] 	15086
scalar three_caches_scenario_3_links_network.node[4].core_layer 	interests[4] 	0
scalar three_caches_scenario_3_links_network.node[4].core_layer 	data[4] 	0
scalar three_caches_scenario_3_links_network.node[4].content_store 	p_hit[4] 	-nan
scalar three_caches_scenario_3_links_network.node[4].content_store 	hits[4] 	0
scalar three_caches_scenario_3_links_network.node[4].content_store 	misses[4] 	0
scalar three_caches_scenario_3_links_network.node[4].content_store 	decision_yes[4] 	0
scalar three_caches_scenario_3_links_network.node[4].content_store 	decision_no[4] 	0
scalar three_caches_scenario_3_links_network.node[5].core_layer 	interests[5] 	16751
scalar three_caches_scenario_3_links_network.node[5].core_layer 	repo_load[5] 	16751
scalar three_caches_scenario_3_links_network.node[5].core_layer 	data[5] 	0
scalar three_caches_scenario_3_links_network.node[5].content_store 	p_hit[5] 	0
scalar three_caches_scenario_3_links_network.node[5].content_store 	hits[5] 	0
scalar three_caches_scenario_3_links_network.node[5].content_store 	misses[5] 	16751
scalar three_caches_scenario_3_links_network.node[5].content_store 	decision_yes[5] 	0
scalar three_caches_scenario_3_links_network.node[5].content_store 	decision_no[5] 	16751
scalar three_caches_scenario_3_links_network.node[6].core_layer 	interests[6] 	15196
scalar three_caches_scenario_3_links_network.node[6].core_layer 	repo_load[6] 	15196
scalar three_caches_scenario_3_links_network.node[6].core_layer 	data[6] 	0
scalar three_caches_scenario_3_links_network.node[6].content_store 	p_hit[6] 	0
scalar three_caches_scenario_3_links_network.node[6].content_store 	hits[6] 	0
scalar three_caches_scenario_3_links_network.node[6].content_store 	misses[6] 	15196
scalar three_caches_scenario_3_links_network.node[6].content_store 	decision_yes[6] 	0
scalar three_caches_scenario_3_links_network.node[6].content_store 	decision_no[6] 	15196
scalar three_caches_scenario_3_links_network.client[0] 	hdistance[0] 	1.1337365964006
scalar three_caches_scenario_3_links_network.client[0] 	downloads[0] 	180362
scalar three_caches_scenario_3_links_network.client[0] 	avg_time[0] 	0
scalar three_caches_scenario_3_links_network.client[0] 	interests_sent[0] 	180362
