version 2
run General-862-20140502-02:41:47-9762
attr D costprob0.005
attr F nrr
attr R lru
attr a 1.2
attr configname General
attr csize 1e3
attr ctlg 1e5
attr datetime 20140502-02:41:47
attr experiment General
attr inifile omnetpp.ini
attr iterationvars "$net=three_caches_scenario_3_links, $rep=2, $priceratiovalue=2, $weights=0_0.5_0.5, $a=1.2, $ctlg=1e5, $F=nrr, $ttl=1000, $D=costprob0.005, $xi=1, $R=lru, $csize=1e3"
attr iterationvars2 "$net=three_caches_scenario_3_links, $rep=2, $priceratiovalue=2, $weights=0_0.5_0.5, $a=1.2, $ctlg=1e5, $F=nrr, $ttl=1000, $D=costprob0.005, $xi=1, $R=lru, $csize=1e3, $repetition=0"
attr measurement "$net=three_caches_scenario_3_links, $rep=2, $priceratiovalue=2, $weights=0_0.5_0.5, $a=1.2, $ctlg=1e5, $F=nrr, $ttl=1000, $D=costprob0.005, $xi=1, $R=lru, $csize=1e3"
attr net three_caches_scenario_3_links
attr network networks.${net=three_caches_scenario_3_links}_network
attr priceratiovalue 2
attr processid 9762
attr rep 2
attr repetition 0
attr replication #0
attr resultdir results
attr runnumber 862
attr seedset 2
attr ttl 1000
attr weights 0_0.5_0.5
attr xi 1

scalar . 	a 	1.2
scalar . 	csize 	1e3
scalar . 	ctlg 	1e5
scalar . 	priceratiovalue 	2
scalar . 	rep 	2
scalar . 	ttl 	1000
scalar . 	xi 	1
scalar three_caches_scenario_3_links_network.content_distribution 	repo-0 	4
scalar three_caches_scenario_3_links_network.content_distribution 	repo-1 	5
scalar three_caches_scenario_3_links_network.content_distribution 	repo-2 	6
scalar three_caches_scenario_3_links_network.content_distribution 	client-0 	0
scalar three_caches_scenario_3_links_network.content_distribution 	repo-0_card 	0
scalar three_caches_scenario_3_links_network.content_distribution 	repo-1_card 	50028
scalar three_caches_scenario_3_links_network.content_distribution 	repo-2_card 	49972
scalar three_caches_scenario_3_links_network.statistics 	p_hit 	0.50336495386867
scalar three_caches_scenario_3_links_network.statistics 	interests 	41775.142857143
scalar three_caches_scenario_3_links_network.statistics 	data 	16136.142857143
scalar three_caches_scenario_3_links_network.statistics 	hdistance 	0.8091969265572
scalar three_caches_scenario_3_links_network.statistics 	avg_time 	0
scalar three_caches_scenario_3_links_network.statistics 	downloads 	179473
scalar three_caches_scenario_3_links_network.statistics 	total_cost 	47315
scalar three_caches_scenario_3_links_network.statistics 	total_replicas 	100000
scalar three_caches_scenario_3_links_network.statistics 	interests_sent 	179473
scalar three_caches_scenario_3_links_network.node[0].core_layer 	interests[0] 	179473
scalar three_caches_scenario_3_links_network.node[0].core_layer 	data[0] 	80677
scalar three_caches_scenario_3_links_network.node[0].core_layer 	repo_int[0] 	32276
scalar three_caches_scenario_3_links_network.node[0].content_store 	p_hit[0] 	0.55047834493211
scalar three_caches_scenario_3_links_network.node[0].content_store 	hits[0] 	98796
scalar three_caches_scenario_3_links_network.node[0].content_store 	misses[0] 	80677
scalar three_caches_scenario_3_links_network.node[0].content_store 	decision_yes[0] 	145
scalar three_caches_scenario_3_links_network.node[0].content_store 	decision_no[0] 	80532
scalar three_caches_scenario_3_links_network.node[1].core_layer 	interests[1] 	0
scalar three_caches_scenario_3_links_network.node[1].core_layer 	data[1] 	0
scalar three_caches_scenario_3_links_network.node[1].content_store 	p_hit[1] 	-nan
scalar three_caches_scenario_3_links_network.node[1].content_store 	hits[1] 	0
scalar three_caches_scenario_3_links_network.node[1].content_store 	misses[1] 	0
scalar three_caches_scenario_3_links_network.node[1].content_store 	decision_yes[1] 	0
scalar three_caches_scenario_3_links_network.node[1].content_store 	decision_no[1] 	0
scalar three_caches_scenario_3_links_network.node[2].core_layer 	interests[2] 	41092
scalar three_caches_scenario_3_links_network.node[2].core_layer 	data[2] 	17237
scalar three_caches_scenario_3_links_network.node[2].content_store 	p_hit[2] 	0.58052662318699
scalar three_caches_scenario_3_links_network.node[2].content_store 	hits[2] 	23855
scalar three_caches_scenario_3_links_network.node[2].content_store 	misses[2] 	17237
scalar three_caches_scenario_3_links_network.node[2].content_store 	decision_yes[2] 	49
scalar three_caches_scenario_3_links_network.node[2].content_store 	decision_no[2] 	17188
scalar three_caches_scenario_3_links_network.node[3].core_layer 	interests[3] 	39585
scalar three_caches_scenario_3_links_network.node[3].core_layer 	data[3] 	15039
scalar three_caches_scenario_3_links_network.node[3].content_store 	p_hit[3] 	0.62008336491095
scalar three_caches_scenario_3_links_network.node[3].content_store 	hits[3] 	24546
scalar three_caches_scenario_3_links_network.node[3].content_store 	misses[3] 	15039
scalar three_caches_scenario_3_links_network.node[3].content_store 	decision_yes[3] 	119
scalar three_caches_scenario_3_links_network.node[3].content_store 	decision_no[3] 	14920
scalar three_caches_scenario_3_links_network.node[4].core_layer 	interests[4] 	0
scalar three_caches_scenario_3_links_network.node[4].core_layer 	data[4] 	0
scalar three_caches_scenario_3_links_network.node[4].content_store 	p_hit[4] 	-nan
scalar three_caches_scenario_3_links_network.node[4].content_store 	hits[4] 	0
scalar three_caches_scenario_3_links_network.node[4].content_store 	misses[4] 	0
scalar three_caches_scenario_3_links_network.node[4].content_store 	decision_yes[4] 	0
scalar three_caches_scenario_3_links_network.node[4].content_store 	decision_no[4] 	0
scalar three_caches_scenario_3_links_network.node[5].core_layer 	interests[5] 	17237
scalar three_caches_scenario_3_links_network.node[5].core_layer 	repo_load[5] 	17237
scalar three_caches_scenario_3_links_network.node[5].core_layer 	data[5] 	0
scalar three_caches_scenario_3_links_network.node[5].content_store 	p_hit[5] 	0
scalar three_caches_scenario_3_links_network.node[5].content_store 	hits[5] 	0
scalar three_caches_scenario_3_links_network.node[5].content_store 	misses[5] 	17237
scalar three_caches_scenario_3_links_network.node[5].content_store 	decision_yes[5] 	0
scalar three_caches_scenario_3_links_network.node[5].content_store 	decision_no[5] 	17237
scalar three_caches_scenario_3_links_network.node[6].core_layer 	interests[6] 	15039
scalar three_caches_scenario_3_links_network.node[6].core_layer 	repo_load[6] 	15039
scalar three_caches_scenario_3_links_network.node[6].core_layer 	data[6] 	0
scalar three_caches_scenario_3_links_network.node[6].content_store 	p_hit[6] 	0
scalar three_caches_scenario_3_links_network.node[6].content_store 	hits[6] 	0
scalar three_caches_scenario_3_links_network.node[6].content_store 	misses[6] 	15039
scalar three_caches_scenario_3_links_network.node[6].content_store 	decision_yes[6] 	0
scalar three_caches_scenario_3_links_network.node[6].content_store 	decision_no[6] 	15039
scalar three_caches_scenario_3_links_network.client[0] 	hdistance[0] 	0.8091969265572
scalar three_caches_scenario_3_links_network.client[0] 	downloads[0] 	179473
scalar three_caches_scenario_3_links_network.client[0] 	avg_time[0] 	0
scalar three_caches_scenario_3_links_network.client[0] 	interests_sent[0] 	179473
