version 2
run General-2757-20140423-19:41:39-28909
attr D costprob0.1
attr F nrr
attr R lru
attr a 0.8
attr configname General
attr csize 2
attr ctlg 10^3
attr datetime 20140423-19:41:39
attr experiment General
attr inifile omnetpp.ini
attr iterationvars "$net=simple_scenario, $rep=8, $priceratiovalue=7, $a=0.8, $ctlg=10^3, $F=nrr, $ttl=1000, $D=costprob0.1, $R=lru, $csize=2"
attr iterationvars2 "$net=simple_scenario, $rep=8, $priceratiovalue=7, $a=0.8, $ctlg=10^3, $F=nrr, $ttl=1000, $D=costprob0.1, $R=lru, $csize=2, $repetition=0"
attr measurement "$net=simple_scenario, $rep=8, $priceratiovalue=7, $a=0.8, $ctlg=10^3, $F=nrr, $ttl=1000, $D=costprob0.1, $R=lru, $csize=2"
attr net simple_scenario
attr network networks.${net=simple_scenario}_network
attr priceratiovalue 7
attr processid 28909
attr rep 8
attr repetition 0
attr replication #0
attr resultdir results
attr runnumber 2757
attr seedset 8
attr ttl 1000

scalar . 	a 	0.8
scalar . 	csize 	2
scalar . 	priceratiovalue 	7
scalar . 	rep 	8
scalar . 	ttl 	1000
scalar simple_scenario_network.content_distribution 	repo-0 	3
scalar simple_scenario_network.content_distribution 	repo-1 	4
scalar simple_scenario_network.content_distribution 	client-0 	0
scalar simple_scenario_network.content_distribution 	repo-0_card 	485
scalar simple_scenario_network.content_distribution 	repo-1_card 	515
scalar simple_scenario_network.statistics 	p_hit 	0.022830910890598
scalar simple_scenario_network.statistics 	interests 	104866.6
scalar simple_scenario_network.statistics 	data 	68834.2
scalar simple_scenario_network.statistics 	hdistance 	2.8438960491114
scalar simple_scenario_network.statistics 	avg_time 	0.001997985085
scalar simple_scenario_network.statistics 	downloads 	180162
scalar simple_scenario_network.statistics 	total_cost 	89868
scalar simple_scenario_network.node[0].core_layer 	interests[0] 	180162
scalar simple_scenario_network.node[0].core_layer 	data[0] 	175980
scalar simple_scenario_network.node[0].core_layer 	repo_int[0] 	168191
scalar simple_scenario_network.node[0].content_store 	p_hit[0] 	0.023212442135411
scalar simple_scenario_network.node[0].content_store 	hits[0] 	4182
scalar simple_scenario_network.node[0].content_store 	misses[0] 	175980
scalar simple_scenario_network.node[1].core_layer 	interests[1] 	79884
scalar simple_scenario_network.node[1].core_layer 	data[1] 	76397
scalar simple_scenario_network.node[1].content_store 	p_hit[1] 	0.043650793650794
scalar simple_scenario_network.node[1].content_store 	hits[1] 	3487
scalar simple_scenario_network.node[1].content_store 	misses[1] 	76397
scalar simple_scenario_network.node[2].core_layer 	interests[2] 	96096
scalar simple_scenario_network.node[2].core_layer 	data[2] 	91794
scalar simple_scenario_network.node[2].content_store 	p_hit[2] 	0.044767732267732
scalar simple_scenario_network.node[2].content_store 	hits[2] 	4302
scalar simple_scenario_network.node[2].content_store 	misses[2] 	91794
scalar simple_scenario_network.node[3].core_layer 	interests[3] 	76397
scalar simple_scenario_network.node[3].core_layer 	repo_load[3] 	76397
scalar simple_scenario_network.node[3].core_layer 	data[3] 	0
scalar simple_scenario_network.node[3].content_store 	p_hit[3] 	0
scalar simple_scenario_network.node[3].content_store 	hits[3] 	0
scalar simple_scenario_network.node[3].content_store 	misses[3] 	76397
scalar simple_scenario_network.node[4].core_layer 	interests[4] 	91794
scalar simple_scenario_network.node[4].core_layer 	repo_load[4] 	91794
scalar simple_scenario_network.node[4].core_layer 	data[4] 	0
scalar simple_scenario_network.node[4].content_store 	p_hit[4] 	0
scalar simple_scenario_network.node[4].content_store 	hits[4] 	0
scalar simple_scenario_network.node[4].content_store 	misses[4] 	91794
scalar simple_scenario_network.client[0] 	hdistance[0] 	2.8438960491114
scalar simple_scenario_network.client[0] 	downloads[0] 	180162
scalar simple_scenario_network.client[0] 	avg_time[0] 	0.001997985085
