version 2
run General-1652-20140422-20:13:53-28522
attr D prob_cache
attr F nrr
attr R lru
attr a 1.2
attr configname General
attr csize 10
attr ctlg 10^3
attr datetime 20140422-20:13:53
attr experiment General
attr inifile omnetpp.ini
attr iterationvars "$net=simple_scenario, $rep=14, $priceratiovalue=8, $a=1.2, $ctlg=10^3, $F=nrr, $ttl=1000, $D=prob_cache, $R=lru, $csize=10"
attr iterationvars2 "$net=simple_scenario, $rep=14, $priceratiovalue=8, $a=1.2, $ctlg=10^3, $F=nrr, $ttl=1000, $D=prob_cache, $R=lru, $csize=10, $repetition=0"
attr measurement "$net=simple_scenario, $rep=14, $priceratiovalue=8, $a=1.2, $ctlg=10^3, $F=nrr, $ttl=1000, $D=prob_cache, $R=lru, $csize=10"
attr net simple_scenario
attr network networks.${net=simple_scenario}_network
attr priceratiovalue 8
attr processid 28522
attr rep 14
attr repetition 0
attr replication #0
attr resultdir results
attr runnumber 1652
attr seedset 14
attr ttl 1000

scalar . 	a 	1.2
scalar . 	csize 	10
scalar . 	priceratiovalue 	8
scalar . 	rep 	14
scalar . 	ttl 	1000
scalar simple_scenario_network.content_distribution 	repo-0 	3
scalar simple_scenario_network.content_distribution 	repo-1 	4
scalar simple_scenario_network.content_distribution 	client-0 	0
scalar simple_scenario_network.content_distribution 	repo-0_card 	487
scalar simple_scenario_network.content_distribution 	repo-1_card 	513
scalar simple_scenario_network.statistics 	p_hit 	0.30833752144603
scalar simple_scenario_network.statistics 	interests 	69243.6
scalar simple_scenario_network.statistics 	data 	33208
scalar simple_scenario_network.statistics 	hdistance 	1.3290523815338
scalar simple_scenario_network.statistics 	avg_time 	0.001985167336
scalar simple_scenario_network.statistics 	downloads 	180178
scalar simple_scenario_network.statistics 	total_cost 	36717
scalar simple_scenario_network.node[0].core_layer 	interests[0] 	180178
scalar simple_scenario_network.node[0].core_layer 	data[0] 	92614
scalar simple_scenario_network.node[0].core_layer 	repo_int[0] 	73426
scalar simple_scenario_network.node[0].content_store 	p_hit[0] 	0.48598608043157
scalar simple_scenario_network.node[0].content_store 	hits[0] 	87564
scalar simple_scenario_network.node[0].content_store 	misses[0] 	92614
scalar simple_scenario_network.node[1].core_layer 	interests[1] 	48142
scalar simple_scenario_network.node[1].core_layer 	data[1] 	36707
scalar simple_scenario_network.node[1].content_store 	p_hit[1] 	0.23752648415105
scalar simple_scenario_network.node[1].content_store 	hits[1] 	11435
scalar simple_scenario_network.node[1].content_store 	misses[1] 	36707
scalar simple_scenario_network.node[2].core_layer 	interests[2] 	44472
scalar simple_scenario_network.node[2].core_layer 	data[2] 	36719
scalar simple_scenario_network.node[2].content_store 	p_hit[2] 	0.17433441266415
scalar simple_scenario_network.node[2].content_store 	hits[2] 	7753
scalar simple_scenario_network.node[2].content_store 	misses[2] 	36719
scalar simple_scenario_network.node[3].core_layer 	interests[3] 	36707
scalar simple_scenario_network.node[3].core_layer 	repo_load[3] 	36707
scalar simple_scenario_network.node[3].core_layer 	data[3] 	0
scalar simple_scenario_network.node[3].content_store 	p_hit[3] 	0
scalar simple_scenario_network.node[3].content_store 	hits[3] 	0
scalar simple_scenario_network.node[3].content_store 	misses[3] 	36707
scalar simple_scenario_network.node[4].core_layer 	interests[4] 	36719
scalar simple_scenario_network.node[4].core_layer 	repo_load[4] 	36719
scalar simple_scenario_network.node[4].core_layer 	data[4] 	0
scalar simple_scenario_network.node[4].content_store 	p_hit[4] 	0
scalar simple_scenario_network.node[4].content_store 	hits[4] 	0
scalar simple_scenario_network.node[4].content_store 	misses[4] 	36719
scalar simple_scenario_network.client[0] 	hdistance[0] 	1.3290523815338
scalar simple_scenario_network.client[0] 	downloads[0] 	180178
scalar simple_scenario_network.client[0] 	avg_time[0] 	0.001985167336
