version 2
run General-1892-20140422-20:19:09-7599
attr D prob_cache
attr F nrr
attr R lru
attr a 1.2
attr configname General
attr csize 10
attr ctlg 10^3
attr datetime 20140422-20:19:09
attr experiment General
attr inifile omnetpp.ini
attr iterationvars "$net=simple_scenario, $rep=16, $priceratiovalue=8, $a=1.2, $ctlg=10^3, $F=nrr, $ttl=1000, $D=prob_cache, $R=lru, $csize=10"
attr iterationvars2 "$net=simple_scenario, $rep=16, $priceratiovalue=8, $a=1.2, $ctlg=10^3, $F=nrr, $ttl=1000, $D=prob_cache, $R=lru, $csize=10, $repetition=0"
attr measurement "$net=simple_scenario, $rep=16, $priceratiovalue=8, $a=1.2, $ctlg=10^3, $F=nrr, $ttl=1000, $D=prob_cache, $R=lru, $csize=10"
attr net simple_scenario
attr network networks.${net=simple_scenario}_network
attr priceratiovalue 8
attr processid 7599
attr rep 16
attr repetition 0
attr replication #0
attr resultdir results
attr runnumber 1892
attr seedset 16
attr ttl 1000

scalar . 	a 	1.2
scalar . 	csize 	10
scalar . 	priceratiovalue 	8
scalar . 	rep 	16
scalar . 	ttl 	1000
scalar simple_scenario_network.content_distribution 	repo-0 	3
scalar simple_scenario_network.content_distribution 	repo-1 	4
scalar simple_scenario_network.content_distribution 	client-0 	0
scalar simple_scenario_network.content_distribution 	repo-0_card 	495
scalar simple_scenario_network.content_distribution 	repo-1_card 	505
scalar simple_scenario_network.statistics 	p_hit 	0.31228305803143
scalar simple_scenario_network.statistics 	interests 	68797.2
scalar simple_scenario_network.statistics 	data 	32834
scalar simple_scenario_network.statistics 	hdistance 	1.3155875139726
scalar simple_scenario_network.statistics 	avg_time 	0.001985355389
scalar simple_scenario_network.statistics 	downloads 	179817
scalar simple_scenario_network.statistics 	total_cost 	34303
scalar simple_scenario_network.node[0].core_layer 	interests[0] 	179816
scalar simple_scenario_network.node[0].core_layer 	data[0] 	91775
scalar simple_scenario_network.node[0].core_layer 	repo_int[0] 	72395
scalar simple_scenario_network.node[0].content_store 	p_hit[0] 	0.48961716421231
scalar simple_scenario_network.node[0].content_store 	hits[0] 	88041
scalar simple_scenario_network.node[0].content_store 	misses[0] 	91775
scalar simple_scenario_network.node[1].core_layer 	interests[1] 	47384
scalar simple_scenario_network.node[1].core_layer 	data[1] 	38632
scalar simple_scenario_network.node[1].content_store 	p_hit[1] 	0.18470369745062
scalar simple_scenario_network.node[1].content_store 	hits[1] 	8752
scalar simple_scenario_network.node[1].content_store 	misses[1] 	38632
scalar simple_scenario_network.node[2].core_layer 	interests[2] 	44391
scalar simple_scenario_network.node[2].core_layer 	data[2] 	33763
scalar simple_scenario_network.node[2].content_store 	p_hit[2] 	0.23941790002478
scalar simple_scenario_network.node[2].content_store 	hits[2] 	10628
scalar simple_scenario_network.node[2].content_store 	misses[2] 	33763
scalar simple_scenario_network.node[3].core_layer 	interests[3] 	38632
scalar simple_scenario_network.node[3].core_layer 	repo_load[3] 	38632
scalar simple_scenario_network.node[3].core_layer 	data[3] 	0
scalar simple_scenario_network.node[3].content_store 	p_hit[3] 	0
scalar simple_scenario_network.node[3].content_store 	hits[3] 	0
scalar simple_scenario_network.node[3].content_store 	misses[3] 	38632
scalar simple_scenario_network.node[4].core_layer 	interests[4] 	33763
scalar simple_scenario_network.node[4].core_layer 	repo_load[4] 	33763
scalar simple_scenario_network.node[4].core_layer 	data[4] 	0
scalar simple_scenario_network.node[4].content_store 	p_hit[4] 	0
scalar simple_scenario_network.node[4].content_store 	hits[4] 	0
scalar simple_scenario_network.node[4].content_store 	misses[4] 	33763
scalar simple_scenario_network.client[0] 	hdistance[0] 	1.3155875139726
scalar simple_scenario_network.client[0] 	downloads[0] 	179817
scalar simple_scenario_network.client[0] 	avg_time[0] 	0.001985355389
