version 2
run General-163-20140424-12:20:06-12737
attr D prob_cache
attr F nrr
attr R lru
attr a 1.2
attr configname General
attr csize 10
attr ctlg 10^3
attr datetime 20140424-12:20:06
attr experiment General
attr inifile omnetpp.ini
attr iterationvars "$net=simple_scenario, $rep=1, $priceratiovalue=8, $a=1.2, $ctlg=10^3, $F=nrr, $ttl=1000, $D=prob_cache, $R=lru, $csize=10"
attr iterationvars2 "$net=simple_scenario, $rep=1, $priceratiovalue=8, $a=1.2, $ctlg=10^3, $F=nrr, $ttl=1000, $D=prob_cache, $R=lru, $csize=10, $repetition=0"
attr measurement "$net=simple_scenario, $rep=1, $priceratiovalue=8, $a=1.2, $ctlg=10^3, $F=nrr, $ttl=1000, $D=prob_cache, $R=lru, $csize=10"
attr net simple_scenario
attr network networks.${net=simple_scenario}_network
attr priceratiovalue 8
attr processid 12737
attr rep 1
attr repetition 0
attr replication #0
attr resultdir results
attr runnumber 163
attr seedset 1
attr ttl 1000

scalar . 	a 	1.2
scalar . 	csize 	10
scalar . 	priceratiovalue 	8
scalar . 	rep 	1
scalar . 	ttl 	1000
scalar simple_scenario_network.content_distribution 	repo-0 	3
scalar simple_scenario_network.content_distribution 	repo-1 	4
scalar simple_scenario_network.content_distribution 	client-0 	0
scalar simple_scenario_network.content_distribution 	repo-0_card 	522
scalar simple_scenario_network.content_distribution 	repo-1_card 	478
scalar simple_scenario_network.statistics 	p_hit 	0.31022012988329
scalar simple_scenario_network.statistics 	interests 	69077.4
scalar simple_scenario_network.statistics 	data 	33074
scalar simple_scenario_network.statistics 	hdistance 	1.323436119922
scalar simple_scenario_network.statistics 	avg_time 	0.001985284558
scalar simple_scenario_network.statistics 	downloads 	180017
scalar simple_scenario_network.statistics 	total_cost 	37032
scalar simple_scenario_network.node[0].core_layer 	interests[0] 	180017
scalar simple_scenario_network.node[0].core_layer 	data[0] 	92499
scalar simple_scenario_network.node[0].core_layer 	repo_int[0] 	72871
scalar simple_scenario_network.node[0].content_store 	p_hit[0] 	0.48616519550931
scalar simple_scenario_network.node[0].content_store 	hits[0] 	87518
scalar simple_scenario_network.node[0].content_store 	misses[0] 	92499
scalar simple_scenario_network.node[1].core_layer 	interests[1] 	44153
scalar simple_scenario_network.node[1].core_layer 	data[1] 	35668
scalar simple_scenario_network.node[1].content_store 	p_hit[1] 	0.1921726722986
scalar simple_scenario_network.node[1].content_store 	hits[1] 	8485
scalar simple_scenario_network.node[1].content_store 	misses[1] 	35668
scalar simple_scenario_network.node[2].core_layer 	interests[2] 	48346
scalar simple_scenario_network.node[2].core_layer 	data[2] 	37203
scalar simple_scenario_network.node[2].content_store 	p_hit[2] 	0.23048442477144
scalar simple_scenario_network.node[2].content_store 	hits[2] 	11143
scalar simple_scenario_network.node[2].content_store 	misses[2] 	37203
scalar simple_scenario_network.node[3].core_layer 	interests[3] 	35668
scalar simple_scenario_network.node[3].core_layer 	repo_load[3] 	35668
scalar simple_scenario_network.node[3].core_layer 	data[3] 	0
scalar simple_scenario_network.node[3].content_store 	p_hit[3] 	0
scalar simple_scenario_network.node[3].content_store 	hits[3] 	0
scalar simple_scenario_network.node[3].content_store 	misses[3] 	35668
scalar simple_scenario_network.node[4].core_layer 	interests[4] 	37203
scalar simple_scenario_network.node[4].core_layer 	repo_load[4] 	37203
scalar simple_scenario_network.node[4].core_layer 	data[4] 	0
scalar simple_scenario_network.node[4].content_store 	p_hit[4] 	0
scalar simple_scenario_network.node[4].content_store 	hits[4] 	0
scalar simple_scenario_network.node[4].content_store 	misses[4] 	37203
scalar simple_scenario_network.client[0] 	hdistance[0] 	1.323436119922
scalar simple_scenario_network.client[0] 	downloads[0] 	180017
scalar simple_scenario_network.client[0] 	avg_time[0] 	0.001985284558
