version 2
run General-269-20140502-11:50:49-15492
attr D fix0.01
attr F nrr
attr R lru
attr a 1
attr configname General
attr csize 1e3
attr ctlg 1e5
attr datetime 20140502-11:50:49
attr experiment General
attr inifile omnetpp.ini
attr iterationvars "$net=three_caches_scenario_3_links, $rep=2, $priceratiovalue=10, $weights=0.333_0.333_0.334, $a=1, $ctlg=1e5, $F=nrr, $ttl=1000, $D=fix0.01, $xi=1, $R=lru, $csize=1e3"
attr iterationvars2 "$net=three_caches_scenario_3_links, $rep=2, $priceratiovalue=10, $weights=0.333_0.333_0.334, $a=1, $ctlg=1e5, $F=nrr, $ttl=1000, $D=fix0.01, $xi=1, $R=lru, $csize=1e3, $repetition=0"
attr measurement "$net=three_caches_scenario_3_links, $rep=2, $priceratiovalue=10, $weights=0.333_0.333_0.334, $a=1, $ctlg=1e5, $F=nrr, $ttl=1000, $D=fix0.01, $xi=1, $R=lru, $csize=1e3"
attr net three_caches_scenario_3_links
attr network networks.${net=three_caches_scenario_3_links}_network
attr priceratiovalue 10
attr processid 15492
attr rep 2
attr repetition 0
attr replication #0
attr resultdir results
attr runnumber 269
attr seedset 2
attr ttl 1000
attr weights 0.333_0.333_0.334
attr xi 1

scalar . 	a 	1
scalar . 	csize 	1e3
scalar . 	ctlg 	1e5
scalar . 	priceratiovalue 	10
scalar . 	rep 	2
scalar . 	ttl 	1000
scalar . 	xi 	1
scalar three_caches_scenario_3_links_network.content_distribution 	repo-0 	4
scalar three_caches_scenario_3_links_network.content_distribution 	repo-1 	5
scalar three_caches_scenario_3_links_network.content_distribution 	repo-2 	6
scalar three_caches_scenario_3_links_network.content_distribution 	client-0 	0
scalar three_caches_scenario_3_links_network.content_distribution 	repo-0_card 	33264
scalar three_caches_scenario_3_links_network.content_distribution 	repo-1_card 	33272
scalar three_caches_scenario_3_links_network.content_distribution 	repo-2_card 	33464
scalar three_caches_scenario_3_links_network.statistics 	p_hit 	0.27630036806752
scalar three_caches_scenario_3_links_network.statistics 	interests 	50340.142857143
scalar three_caches_scenario_3_links_network.statistics 	data 	24668.571428571
scalar three_caches_scenario_3_links_network.statistics 	hdistance 	1.2548065954002
scalar three_caches_scenario_3_links_network.statistics 	avg_time 	0
scalar three_caches_scenario_3_links_network.statistics 	downloads 	179701
scalar three_caches_scenario_3_links_network.statistics 	total_cost 	292030
scalar three_caches_scenario_3_links_network.statistics 	total_replicas 	100000
scalar three_caches_scenario_3_links_network.statistics 	interests_sent 	179701
scalar three_caches_scenario_3_links_network.node[0].core_layer 	interests[0] 	179701
scalar three_caches_scenario_3_links_network.node[0].core_layer 	data[0] 	90342
scalar three_caches_scenario_3_links_network.node[0].core_layer 	repo_int[0] 	82338
scalar three_caches_scenario_3_links_network.node[0].content_store 	p_hit[0] 	0.49726490114134
scalar three_caches_scenario_3_links_network.node[0].content_store 	hits[0] 	89359
scalar three_caches_scenario_3_links_network.node[0].content_store 	misses[0] 	90342
scalar three_caches_scenario_3_links_network.node[0].content_store 	decision_yes[0] 	956
scalar three_caches_scenario_3_links_network.node[0].content_store 	decision_no[0] 	89386
scalar three_caches_scenario_3_links_network.node[1].core_layer 	interests[1] 	29528
scalar three_caches_scenario_3_links_network.node[1].core_layer 	data[1] 	29528
scalar three_caches_scenario_3_links_network.node[1].content_store 	p_hit[1] 	0
scalar three_caches_scenario_3_links_network.node[1].content_store 	hits[1] 	0
scalar three_caches_scenario_3_links_network.node[1].content_store 	misses[1] 	29528
scalar three_caches_scenario_3_links_network.node[1].content_store 	decision_yes[1] 	0
scalar three_caches_scenario_3_links_network.node[1].content_store 	decision_no[1] 	29528
scalar three_caches_scenario_3_links_network.node[2].core_layer 	interests[2] 	30565
scalar three_caches_scenario_3_links_network.node[2].core_layer 	data[2] 	26230
scalar three_caches_scenario_3_links_network.node[2].content_store 	p_hit[2] 	0.14182888925241
scalar three_caches_scenario_3_links_network.node[2].content_store 	hits[2] 	4335
scalar three_caches_scenario_3_links_network.node[2].content_store 	misses[2] 	26230
scalar three_caches_scenario_3_links_network.node[2].content_store 	decision_yes[2] 	274
scalar three_caches_scenario_3_links_network.node[2].content_store 	decision_no[2] 	25956
scalar three_caches_scenario_3_links_network.node[3].core_layer 	interests[3] 	30249
scalar three_caches_scenario_3_links_network.node[3].core_layer 	data[3] 	26580
scalar three_caches_scenario_3_links_network.node[3].content_store 	p_hit[3] 	0.12129326589309
scalar three_caches_scenario_3_links_network.node[3].content_store 	hits[3] 	3669
scalar three_caches_scenario_3_links_network.node[3].content_store 	misses[3] 	26580
scalar three_caches_scenario_3_links_network.node[3].content_store 	decision_yes[3] 	286
scalar three_caches_scenario_3_links_network.node[3].content_store 	decision_no[3] 	26294
scalar three_caches_scenario_3_links_network.node[4].core_layer 	interests[4] 	29528
scalar three_caches_scenario_3_links_network.node[4].core_layer 	repo_load[4] 	29528
scalar three_caches_scenario_3_links_network.node[4].core_layer 	data[4] 	0
scalar three_caches_scenario_3_links_network.node[4].content_store 	p_hit[4] 	0
scalar three_caches_scenario_3_links_network.node[4].content_store 	hits[4] 	0
scalar three_caches_scenario_3_links_network.node[4].content_store 	misses[4] 	29528
scalar three_caches_scenario_3_links_network.node[4].content_store 	decision_yes[4] 	0
scalar three_caches_scenario_3_links_network.node[4].content_store 	decision_no[4] 	29528
scalar three_caches_scenario_3_links_network.node[5].core_layer 	interests[5] 	26230
scalar three_caches_scenario_3_links_network.node[5].core_layer 	repo_load[5] 	26230
scalar three_caches_scenario_3_links_network.node[5].core_layer 	data[5] 	0
scalar three_caches_scenario_3_links_network.node[5].content_store 	p_hit[5] 	0
scalar three_caches_scenario_3_links_network.node[5].content_store 	hits[5] 	0
scalar three_caches_scenario_3_links_network.node[5].content_store 	misses[5] 	26230
scalar three_caches_scenario_3_links_network.node[5].content_store 	decision_yes[5] 	0
scalar three_caches_scenario_3_links_network.node[5].content_store 	decision_no[5] 	26230
scalar three_caches_scenario_3_links_network.node[6].core_layer 	interests[6] 	26580
scalar three_caches_scenario_3_links_network.node[6].core_layer 	repo_load[6] 	26580
scalar three_caches_scenario_3_links_network.node[6].core_layer 	data[6] 	0
scalar three_caches_scenario_3_links_network.node[6].content_store 	p_hit[6] 	0
scalar three_caches_scenario_3_links_network.node[6].content_store 	hits[6] 	0
scalar three_caches_scenario_3_links_network.node[6].content_store 	misses[6] 	26580
scalar three_caches_scenario_3_links_network.node[6].content_store 	decision_yes[6] 	0
scalar three_caches_scenario_3_links_network.node[6].content_store 	decision_no[6] 	26580
scalar three_caches_scenario_3_links_network.client[0] 	hdistance[0] 	1.2548065954002
scalar three_caches_scenario_3_links_network.client[0] 	downloads[0] 	179701
scalar three_caches_scenario_3_links_network.client[0] 	avg_time[0] 	0
scalar three_caches_scenario_3_links_network.client[0] 	interests_sent[0] 	179701
