version 2
run General-125-20140502-10:34:43-13553
attr D fix0.01
attr F nrr
attr R lru
attr a 1
attr configname General
attr csize 1e3
attr ctlg 1e5
attr datetime 20140502-10:34:43
attr experiment General
attr inifile omnetpp.ini
attr iterationvars "$net=three_caches_scenario_3_links, $rep=1, $priceratiovalue=10, $weights=0.333_0.333_0.334, $a=1, $ctlg=1e5, $F=nrr, $ttl=1000, $D=fix0.01, $xi=1, $R=lru, $csize=1e3"
attr iterationvars2 "$net=three_caches_scenario_3_links, $rep=1, $priceratiovalue=10, $weights=0.333_0.333_0.334, $a=1, $ctlg=1e5, $F=nrr, $ttl=1000, $D=fix0.01, $xi=1, $R=lru, $csize=1e3, $repetition=0"
attr measurement "$net=three_caches_scenario_3_links, $rep=1, $priceratiovalue=10, $weights=0.333_0.333_0.334, $a=1, $ctlg=1e5, $F=nrr, $ttl=1000, $D=fix0.01, $xi=1, $R=lru, $csize=1e3"
attr net three_caches_scenario_3_links
attr network networks.${net=three_caches_scenario_3_links}_network
attr priceratiovalue 10
attr processid 13553
attr rep 1
attr repetition 0
attr replication #0
attr resultdir results
attr runnumber 125
attr seedset 1
attr ttl 1000
attr weights 0.333_0.333_0.334
attr xi 1

scalar . 	a 	1
scalar . 	csize 	1e3
scalar . 	ctlg 	1e5
scalar . 	priceratiovalue 	10
scalar . 	rep 	1
scalar . 	ttl 	1000
scalar . 	xi 	1
scalar three_caches_scenario_3_links_network.content_distribution 	repo-0 	4
scalar three_caches_scenario_3_links_network.content_distribution 	repo-1 	5
scalar three_caches_scenario_3_links_network.content_distribution 	repo-2 	6
scalar three_caches_scenario_3_links_network.content_distribution 	client-0 	0
scalar three_caches_scenario_3_links_network.content_distribution 	repo-0_card 	33352
scalar three_caches_scenario_3_links_network.content_distribution 	repo-1_card 	33263
scalar three_caches_scenario_3_links_network.content_distribution 	repo-2_card 	33385
scalar three_caches_scenario_3_links_network.statistics 	p_hit 	0.27925653904338
scalar three_caches_scenario_3_links_network.statistics 	interests 	50143.857142857
scalar three_caches_scenario_3_links_network.statistics 	data 	24486.142857143
scalar three_caches_scenario_3_links_network.statistics 	hdistance 	1.2430680831162
scalar three_caches_scenario_3_links_network.statistics 	avg_time 	0
scalar three_caches_scenario_3_links_network.statistics 	downloads 	179604
scalar three_caches_scenario_3_links_network.statistics 	total_cost 	285164
scalar three_caches_scenario_3_links_network.statistics 	total_replicas 	100000
scalar three_caches_scenario_3_links_network.statistics 	interests_sent 	179604
scalar three_caches_scenario_3_links_network.node[0].core_layer 	interests[0] 	179604
scalar three_caches_scenario_3_links_network.node[0].core_layer 	data[0] 	89820
scalar three_caches_scenario_3_links_network.node[0].core_layer 	repo_int[0] 	81583
scalar three_caches_scenario_3_links_network.node[0].content_store 	p_hit[0] 	0.49989977951493
scalar three_caches_scenario_3_links_network.node[0].content_store 	hits[0] 	89784
scalar three_caches_scenario_3_links_network.node[0].content_store 	misses[0] 	89820
scalar three_caches_scenario_3_links_network.node[0].content_store 	decision_yes[0] 	904
scalar three_caches_scenario_3_links_network.node[0].content_store 	decision_no[0] 	88916
scalar three_caches_scenario_3_links_network.node[1].core_layer 	interests[1] 	29726
scalar three_caches_scenario_3_links_network.node[1].core_layer 	data[1] 	29726
scalar three_caches_scenario_3_links_network.node[1].content_store 	p_hit[1] 	0
scalar three_caches_scenario_3_links_network.node[1].content_store 	hits[1] 	0
scalar three_caches_scenario_3_links_network.node[1].content_store 	misses[1] 	29726
scalar three_caches_scenario_3_links_network.node[1].content_store 	decision_yes[1] 	0
scalar three_caches_scenario_3_links_network.node[1].content_store 	decision_no[1] 	29726
scalar three_caches_scenario_3_links_network.node[2].core_layer 	interests[2] 	30338
scalar three_caches_scenario_3_links_network.node[2].core_layer 	data[2] 	25934
scalar three_caches_scenario_3_links_network.node[2].content_store 	p_hit[2] 	0.14516448018986
scalar three_caches_scenario_3_links_network.node[2].content_store 	hits[2] 	4404
scalar three_caches_scenario_3_links_network.node[2].content_store 	misses[2] 	25934
scalar three_caches_scenario_3_links_network.node[2].content_store 	decision_yes[2] 	263
scalar three_caches_scenario_3_links_network.node[2].content_store 	decision_no[2] 	25671
scalar three_caches_scenario_3_links_network.node[3].core_layer 	interests[3] 	29756
scalar three_caches_scenario_3_links_network.node[3].core_layer 	data[3] 	25923
scalar three_caches_scenario_3_links_network.node[3].content_store 	p_hit[3] 	0.12881435676838
scalar three_caches_scenario_3_links_network.node[3].content_store 	hits[3] 	3833
scalar three_caches_scenario_3_links_network.node[3].content_store 	misses[3] 	25923
scalar three_caches_scenario_3_links_network.node[3].content_store 	decision_yes[3] 	270
scalar three_caches_scenario_3_links_network.node[3].content_store 	decision_no[3] 	25653
scalar three_caches_scenario_3_links_network.node[4].core_layer 	interests[4] 	29726
scalar three_caches_scenario_3_links_network.node[4].core_layer 	repo_load[4] 	29726
scalar three_caches_scenario_3_links_network.node[4].core_layer 	data[4] 	0
scalar three_caches_scenario_3_links_network.node[4].content_store 	p_hit[4] 	0
scalar three_caches_scenario_3_links_network.node[4].content_store 	hits[4] 	0
scalar three_caches_scenario_3_links_network.node[4].content_store 	misses[4] 	29726
scalar three_caches_scenario_3_links_network.node[4].content_store 	decision_yes[4] 	0
scalar three_caches_scenario_3_links_network.node[4].content_store 	decision_no[4] 	29726
scalar three_caches_scenario_3_links_network.node[5].core_layer 	interests[5] 	25934
scalar three_caches_scenario_3_links_network.node[5].core_layer 	repo_load[5] 	25934
scalar three_caches_scenario_3_links_network.node[5].core_layer 	data[5] 	0
scalar three_caches_scenario_3_links_network.node[5].content_store 	p_hit[5] 	0
scalar three_caches_scenario_3_links_network.node[5].content_store 	hits[5] 	0
scalar three_caches_scenario_3_links_network.node[5].content_store 	misses[5] 	25934
scalar three_caches_scenario_3_links_network.node[5].content_store 	decision_yes[5] 	0
scalar three_caches_scenario_3_links_network.node[5].content_store 	decision_no[5] 	25934
scalar three_caches_scenario_3_links_network.node[6].core_layer 	interests[6] 	25923
scalar three_caches_scenario_3_links_network.node[6].core_layer 	repo_load[6] 	25923
scalar three_caches_scenario_3_links_network.node[6].core_layer 	data[6] 	0
scalar three_caches_scenario_3_links_network.node[6].content_store 	p_hit[6] 	0
scalar three_caches_scenario_3_links_network.node[6].content_store 	hits[6] 	0
scalar three_caches_scenario_3_links_network.node[6].content_store 	misses[6] 	25923
scalar three_caches_scenario_3_links_network.node[6].content_store 	decision_yes[6] 	0
scalar three_caches_scenario_3_links_network.node[6].content_store 	decision_no[6] 	25923
scalar three_caches_scenario_3_links_network.client[0] 	hdistance[0] 	1.2430680831162
scalar three_caches_scenario_3_links_network.client[0] 	downloads[0] 	179604
scalar three_caches_scenario_3_links_network.client[0] 	avg_time[0] 	0
scalar three_caches_scenario_3_links_network.client[0] 	interests_sent[0] 	179604
