version 2
run General-245-20140423-18:37:55-26013
attr D prob_cache
attr F nrr
attr R lru
attr a 1.2
attr configname General
attr csize 2
attr ctlg 10^3
attr datetime 20140423-18:37:55
attr experiment General
attr inifile omnetpp.ini
attr iterationvars "$net=simple_scenario, $rep=1, $priceratiovalue=7, $a=1.2, $ctlg=10^3, $F=nrr, $ttl=1000, $D=prob_cache, $R=lru, $csize=2"
attr iterationvars2 "$net=simple_scenario, $rep=1, $priceratiovalue=7, $a=1.2, $ctlg=10^3, $F=nrr, $ttl=1000, $D=prob_cache, $R=lru, $csize=2, $repetition=0"
attr measurement "$net=simple_scenario, $rep=1, $priceratiovalue=7, $a=1.2, $ctlg=10^3, $F=nrr, $ttl=1000, $D=prob_cache, $R=lru, $csize=2"
attr net simple_scenario
attr network networks.${net=simple_scenario}_network
attr priceratiovalue 7
attr processid 26013
attr rep 1
attr repetition 0
attr replication #0
attr resultdir results
attr runnumber 245
attr seedset 1
attr ttl 1000

scalar . 	a 	1.2
scalar . 	csize 	2
scalar . 	priceratiovalue 	7
scalar . 	rep 	1
scalar . 	ttl 	1000
scalar simple_scenario_network.content_distribution 	repo-0 	3
scalar simple_scenario_network.content_distribution 	repo-1 	4
scalar simple_scenario_network.content_distribution 	client-0 	0
scalar simple_scenario_network.content_distribution 	repo-0_card 	522
scalar simple_scenario_network.content_distribution 	repo-1_card 	478
scalar simple_scenario_network.statistics 	p_hit 	0.11870407407817
scalar simple_scenario_network.statistics 	interests 	90499
scalar simple_scenario_network.statistics 	data 	54543.6
scalar simple_scenario_network.statistics 	hdistance 	2.2182036634275
scalar simple_scenario_network.statistics 	avg_time 	0.001985228778
scalar simple_scenario_network.statistics 	downloads 	179777
scalar simple_scenario_network.statistics 	total_cost 	70536
scalar simple_scenario_network.node[0].core_layer 	interests[0] 	179777
scalar simple_scenario_network.node[0].core_layer 	data[0] 	146654
scalar simple_scenario_network.node[0].core_layer 	repo_int[0] 	126064
scalar simple_scenario_network.node[0].content_store 	p_hit[0] 	0.1842449256579
scalar simple_scenario_network.node[0].content_store 	hits[0] 	33123
scalar simple_scenario_network.node[0].content_store 	misses[0] 	146654
scalar simple_scenario_network.node[1].core_layer 	interests[1] 	59387
scalar simple_scenario_network.node[1].core_layer 	data[1] 	53026
scalar simple_scenario_network.node[1].content_store 	p_hit[1] 	0.10711098388536
scalar simple_scenario_network.node[1].content_store 	hits[1] 	6361
scalar simple_scenario_network.node[1].content_store 	misses[1] 	53026
scalar simple_scenario_network.node[2].core_layer 	interests[2] 	87267
scalar simple_scenario_network.node[2].core_layer 	data[2] 	73038
scalar simple_scenario_network.node[2].content_store 	p_hit[2] 	0.16305132524322
scalar simple_scenario_network.node[2].content_store 	hits[2] 	14229
scalar simple_scenario_network.node[2].content_store 	misses[2] 	73038
scalar simple_scenario_network.node[3].core_layer 	interests[3] 	53026
scalar simple_scenario_network.node[3].core_layer 	repo_load[3] 	53026
scalar simple_scenario_network.node[3].core_layer 	data[3] 	0
scalar simple_scenario_network.node[3].content_store 	p_hit[3] 	0
scalar simple_scenario_network.node[3].content_store 	hits[3] 	0
scalar simple_scenario_network.node[3].content_store 	misses[3] 	53026
scalar simple_scenario_network.node[4].core_layer 	interests[4] 	73038
scalar simple_scenario_network.node[4].core_layer 	repo_load[4] 	73038
scalar simple_scenario_network.node[4].core_layer 	data[4] 	0
scalar simple_scenario_network.node[4].content_store 	p_hit[4] 	0
scalar simple_scenario_network.node[4].content_store 	hits[4] 	0
scalar simple_scenario_network.node[4].content_store 	misses[4] 	73038
scalar simple_scenario_network.client[0] 	hdistance[0] 	2.2182036634275
scalar simple_scenario_network.client[0] 	downloads[0] 	179777
scalar simple_scenario_network.client[0] 	avg_time[0] 	0.001985228778
