version 2
run General-255-20140502-11:41:00-15424
attr D fix0.5
attr F nrr
attr R lru
attr a 0.8
attr configname General
attr csize 1e3
attr ctlg 1e5
attr datetime 20140502-11:41:00
attr experiment General
attr inifile omnetpp.ini
attr iterationvars "$net=three_caches_scenario_3_links, $rep=2, $priceratiovalue=10, $weights=0.333_0.333_0.334, $a=0.8, $ctlg=1e5, $F=nrr, $ttl=1000, $D=fix0.5, $xi=1, $R=lru, $csize=1e3"
attr iterationvars2 "$net=three_caches_scenario_3_links, $rep=2, $priceratiovalue=10, $weights=0.333_0.333_0.334, $a=0.8, $ctlg=1e5, $F=nrr, $ttl=1000, $D=fix0.5, $xi=1, $R=lru, $csize=1e3, $repetition=0"
attr measurement "$net=three_caches_scenario_3_links, $rep=2, $priceratiovalue=10, $weights=0.333_0.333_0.334, $a=0.8, $ctlg=1e5, $F=nrr, $ttl=1000, $D=fix0.5, $xi=1, $R=lru, $csize=1e3"
attr net three_caches_scenario_3_links
attr network networks.${net=three_caches_scenario_3_links}_network
attr priceratiovalue 10
attr processid 15424
attr rep 2
attr repetition 0
attr replication #0
attr resultdir results
attr runnumber 255
attr seedset 2
attr ttl 1000
attr weights 0.333_0.333_0.334
attr xi 1

scalar . 	a 	0.8
scalar . 	csize 	1e3
scalar . 	ctlg 	1e5
scalar . 	priceratiovalue 	10
scalar . 	rep 	2
scalar . 	ttl 	1000
scalar . 	xi 	1
scalar three_caches_scenario_3_links_network.content_distribution 	repo-0 	4
scalar three_caches_scenario_3_links_network.content_distribution 	repo-1 	5
scalar three_caches_scenario_3_links_network.content_distribution 	repo-2 	6
scalar three_caches_scenario_3_links_network.content_distribution 	client-0 	0
scalar three_caches_scenario_3_links_network.content_distribution 	repo-0_card 	33264
scalar three_caches_scenario_3_links_network.content_distribution 	repo-1_card 	33272
scalar three_caches_scenario_3_links_network.content_distribution 	repo-2_card 	33464
scalar three_caches_scenario_3_links_network.statistics 	p_hit 	0.071121910187221
scalar three_caches_scenario_3_links_network.statistics 	interests 	68612.571428571
scalar three_caches_scenario_3_links_network.statistics 	data 	42930.142857143
scalar three_caches_scenario_3_links_network.statistics 	hdistance 	2.1971998642763
scalar three_caches_scenario_3_links_network.statistics 	avg_time 	0
scalar three_caches_scenario_3_links_network.statistics 	downloads 	179777
scalar three_caches_scenario_3_links_network.statistics 	total_cost 	523768
scalar three_caches_scenario_3_links_network.statistics 	total_replicas 	100000
scalar three_caches_scenario_3_links_network.statistics 	interests_sent 	179777
scalar three_caches_scenario_3_links_network.node[0].core_layer 	interests[0] 	179777
scalar three_caches_scenario_3_links_network.node[0].core_layer 	data[0] 	154893
scalar three_caches_scenario_3_links_network.node[0].core_layer 	repo_int[0] 	145618
scalar three_caches_scenario_3_links_network.node[0].content_store 	p_hit[0] 	0.1384159263977
scalar three_caches_scenario_3_links_network.node[0].content_store 	hits[0] 	24884
scalar three_caches_scenario_3_links_network.node[0].content_store 	misses[0] 	154893
scalar three_caches_scenario_3_links_network.node[0].content_store 	decision_yes[0] 	77841
scalar three_caches_scenario_3_links_network.node[0].content_store 	decision_no[0] 	77052
scalar three_caches_scenario_3_links_network.node[1].core_layer 	interests[1] 	51123
scalar three_caches_scenario_3_links_network.node[1].core_layer 	data[1] 	51123
scalar three_caches_scenario_3_links_network.node[1].content_store 	p_hit[1] 	0
scalar three_caches_scenario_3_links_network.node[1].content_store 	hits[1] 	0
scalar three_caches_scenario_3_links_network.node[1].content_store 	misses[1] 	51123
scalar three_caches_scenario_3_links_network.node[1].content_store 	decision_yes[1] 	0
scalar three_caches_scenario_3_links_network.node[1].content_store 	decision_no[1] 	51123
scalar three_caches_scenario_3_links_network.node[2].core_layer 	interests[2] 	51281
scalar three_caches_scenario_3_links_network.node[2].core_layer 	data[2] 	46798
scalar three_caches_scenario_3_links_network.node[2].content_store 	p_hit[2] 	0.087420292115988
scalar three_caches_scenario_3_links_network.node[2].content_store 	hits[2] 	4483
scalar three_caches_scenario_3_links_network.node[2].content_store 	misses[2] 	46798
scalar three_caches_scenario_3_links_network.node[2].content_store 	decision_yes[2] 	23474
scalar three_caches_scenario_3_links_network.node[2].content_store 	decision_no[2] 	23324
scalar three_caches_scenario_3_links_network.node[3].core_layer 	interests[3] 	52489
scalar three_caches_scenario_3_links_network.node[3].core_layer 	data[3] 	47697
scalar three_caches_scenario_3_links_network.node[3].content_store 	p_hit[3] 	0.091295319019223
scalar three_caches_scenario_3_links_network.node[3].content_store 	hits[3] 	4792
scalar three_caches_scenario_3_links_network.node[3].content_store 	misses[3] 	47697
scalar three_caches_scenario_3_links_network.node[3].content_store 	decision_yes[3] 	23716
scalar three_caches_scenario_3_links_network.node[3].content_store 	decision_no[3] 	23981
scalar three_caches_scenario_3_links_network.node[4].core_layer 	interests[4] 	51123
scalar three_caches_scenario_3_links_network.node[4].core_layer 	repo_load[4] 	51123
scalar three_caches_scenario_3_links_network.node[4].core_layer 	data[4] 	0
scalar three_caches_scenario_3_links_network.node[4].content_store 	p_hit[4] 	0
scalar three_caches_scenario_3_links_network.node[4].content_store 	hits[4] 	0
scalar three_caches_scenario_3_links_network.node[4].content_store 	misses[4] 	51123
scalar three_caches_scenario_3_links_network.node[4].content_store 	decision_yes[4] 	0
scalar three_caches_scenario_3_links_network.node[4].content_store 	decision_no[4] 	51123
scalar three_caches_scenario_3_links_network.node[5].core_layer 	interests[5] 	46798
scalar three_caches_scenario_3_links_network.node[5].core_layer 	repo_load[5] 	46798
scalar three_caches_scenario_3_links_network.node[5].core_layer 	data[5] 	0
scalar three_caches_scenario_3_links_network.node[5].content_store 	p_hit[5] 	0
scalar three_caches_scenario_3_links_network.node[5].content_store 	hits[5] 	0
scalar three_caches_scenario_3_links_network.node[5].content_store 	misses[5] 	46798
scalar three_caches_scenario_3_links_network.node[5].content_store 	decision_yes[5] 	0
scalar three_caches_scenario_3_links_network.node[5].content_store 	decision_no[5] 	46798
scalar three_caches_scenario_3_links_network.node[6].core_layer 	interests[6] 	47697
scalar three_caches_scenario_3_links_network.node[6].core_layer 	repo_load[6] 	47697
scalar three_caches_scenario_3_links_network.node[6].core_layer 	data[6] 	0
scalar three_caches_scenario_3_links_network.node[6].content_store 	p_hit[6] 	0
scalar three_caches_scenario_3_links_network.node[6].content_store 	hits[6] 	0
scalar three_caches_scenario_3_links_network.node[6].content_store 	misses[6] 	47697
scalar three_caches_scenario_3_links_network.node[6].content_store 	decision_yes[6] 	0
scalar three_caches_scenario_3_links_network.node[6].content_store 	decision_no[6] 	47697
scalar three_caches_scenario_3_links_network.client[0] 	hdistance[0] 	2.1971998642763
scalar three_caches_scenario_3_links_network.client[0] 	downloads[0] 	179777
scalar three_caches_scenario_3_links_network.client[0] 	avg_time[0] 	0
scalar three_caches_scenario_3_links_network.client[0] 	interests_sent[0] 	179777
