version 2
run General-4-20150311-18:59:35-28957
attr D lce
attr F spr
attr R lru
attr a 0.6
attr configname General
attr datetime 20150311-18:59:35
attr experiment General
attr inifile omnetpp.ini
attr iterationvars "$net=abilene, $rep=0, $a=0.6, $F=spr, $ttl=1000, $D=lce, $R=lru"
attr iterationvars2 "$net=abilene, $rep=0, $a=0.6, $F=spr, $ttl=1000, $D=lce, $R=lru, $repetition=0"
attr measurement "$net=abilene, $rep=0, $a=0.6, $F=spr, $ttl=1000, $D=lce, $R=lru"
attr net abilene
attr network networks.${net=abilene}_network
attr processid 28957
attr rep 0
attr repetition 0
attr replication #0
attr resultdir results
attr runnumber 4
attr seedset 0
attr ttl 1000

scalar . 	a 	0.6
scalar . 	rep 	0
scalar . 	ttl 	1000
scalar abilene_network.content_distribution 	repo-0 	5
scalar abilene_network.content_distribution 	client-0 	8
scalar abilene_network.content_distribution 	client-1 	9
scalar abilene_network.content_distribution 	client-2 	5
scalar abilene_network.content_distribution 	client-3 	0
scalar abilene_network.content_distribution 	client-4 	1
scalar abilene_network.content_distribution 	client-5 	7
scalar abilene_network.content_distribution 	client-6 	6
scalar abilene_network.content_distribution 	client-7 	2
scalar abilene_network.content_distribution 	client-8 	4
scalar abilene_network.content_distribution 	client-9 	10
scalar abilene_network.content_distribution 	client-10 	3
scalar abilene_network.content_distribution 	repo-0_card 	10000
scalar abilene_network.content_distribution 	repo-0_price 	0
scalar abilene_network.statistics 	stabilization_time 	168.9
scalar abilene_network.statistics 	p_hit 	0.019829430308489
scalar abilene_network.statistics 	interests 	6459.6363636364
scalar abilene_network.statistics 	data 	4654.2727272727
scalar abilene_network.statistics 	hdistance 	3.5072545787601
scalar abilene_network.statistics 	avg_time 	0.014561538145
scalar abilene_network.statistics 	downloads 	19855
scalar abilene_network.statistics 	total_cost 	0
scalar abilene_network.statistics 	total_replicas 	10000
scalar abilene_network.statistics 	inner_hit 	0.070964492571141
scalar abilene_network.node[0].core_layer 	interests[0] 	1809
scalar abilene_network.node[0].core_layer 	data[0] 	1736
scalar abilene_network.node[0].core_layer 	repo_int[0] 	18446
scalar abilene_network.node[0].content_store 	p_hit[0] 	0.040353786622443
scalar abilene_network.node[0].content_store 	hits[0] 	73
scalar abilene_network.node[0].content_store 	misses[0] 	1736
scalar abilene_network.node[0].content_store 	decision_yes[0] 	1736
scalar abilene_network.node[0].content_store 	decision_no[0] 	0
scalar abilene_network.node[0].content_store 	decision_ratio[0] 	1
scalar abilene_network.node[1].core_layer 	interests[1] 	5283
scalar abilene_network.node[1].core_layer 	data[1] 	5131
scalar abilene_network.node[1].content_store 	p_hit[1] 	0.028771531326898
scalar abilene_network.node[1].content_store 	hits[1] 	152
scalar abilene_network.node[1].content_store 	misses[1] 	5131
scalar abilene_network.node[1].content_store 	decision_yes[1] 	5131
scalar abilene_network.node[1].content_store 	decision_no[1] 	0
scalar abilene_network.node[1].content_store 	decision_ratio[1] 	1
scalar abilene_network.node[2].core_layer 	interests[2] 	6897
scalar abilene_network.node[2].core_layer 	data[2] 	6784
scalar abilene_network.node[2].content_store 	p_hit[2] 	0.016383935044222
scalar abilene_network.node[2].content_store 	hits[2] 	113
scalar abilene_network.node[2].content_store 	misses[2] 	6784
scalar abilene_network.node[2].content_store 	decision_yes[2] 	6784
scalar abilene_network.node[2].content_store 	decision_no[2] 	0
scalar abilene_network.node[2].content_store 	decision_ratio[2] 	1
scalar abilene_network.node[3].core_layer 	interests[3] 	8604
scalar abilene_network.node[3].core_layer 	data[3] 	8483
scalar abilene_network.node[3].content_store 	p_hit[3] 	0.014063226406323
scalar abilene_network.node[3].content_store 	hits[3] 	121
scalar abilene_network.node[3].content_store 	misses[3] 	8483
scalar abilene_network.node[3].content_store 	decision_yes[3] 	8483
scalar abilene_network.node[3].content_store 	decision_no[3] 	0
scalar abilene_network.node[3].content_store 	decision_ratio[3] 	1
scalar abilene_network.node[4].core_layer 	interests[4] 	10252
scalar abilene_network.node[4].core_layer 	data[4] 	10138
scalar abilene_network.node[4].content_store 	p_hit[4] 	0.011119781506048
scalar abilene_network.node[4].content_store 	hits[4] 	114
scalar abilene_network.node[4].content_store 	misses[4] 	10138
scalar abilene_network.node[4].content_store 	decision_yes[4] 	10138
scalar abilene_network.node[4].content_store 	decision_no[4] 	0
scalar abilene_network.node[4].content_store 	decision_ratio[4] 	1
scalar abilene_network.node[5].core_layer 	interests[5] 	18810
scalar abilene_network.node[5].core_layer 	repo_load[5] 	18446
scalar abilene_network.node[5].core_layer 	data[5] 	0
scalar abilene_network.node[5].content_store 	p_hit[5] 	0.019351408825093
scalar abilene_network.node[5].content_store 	hits[5] 	364
scalar abilene_network.node[5].content_store 	misses[5] 	18446
scalar abilene_network.node[5].content_store 	decision_yes[5] 	18446
scalar abilene_network.node[5].content_store 	decision_no[5] 	0
scalar abilene_network.node[5].content_store 	decision_ratio[5] 	1
scalar abilene_network.node[6].core_layer 	interests[6] 	6939
scalar abilene_network.node[6].core_layer 	data[6] 	6824
scalar abilene_network.node[6].content_store 	p_hit[6] 	0.01642888024211
scalar abilene_network.node[6].content_store 	hits[6] 	114
scalar abilene_network.node[6].content_store 	misses[6] 	6825
scalar abilene_network.node[6].content_store 	decision_yes[6] 	6824
scalar abilene_network.node[6].content_store 	decision_no[6] 	0
scalar abilene_network.node[6].content_store 	decision_ratio[6] 	1
scalar abilene_network.node[7].core_layer 	interests[7] 	5245
scalar abilene_network.node[7].core_layer 	data[7] 	5126
scalar abilene_network.node[7].content_store 	p_hit[7] 	0.02230695900858
scalar abilene_network.node[7].content_store 	hits[7] 	117
scalar abilene_network.node[7].content_store 	misses[7] 	5128
scalar abilene_network.node[7].content_store 	decision_yes[7] 	5126
scalar abilene_network.node[7].content_store 	decision_no[7] 	0
scalar abilene_network.node[7].content_store 	decision_ratio[7] 	1
scalar abilene_network.node[8].core_layer 	interests[8] 	3523
scalar abilene_network.node[8].core_layer 	data[8] 	3431
scalar abilene_network.node[8].content_store 	p_hit[8] 	0.025830258302583
scalar abilene_network.node[8].content_store 	hits[8] 	91
scalar abilene_network.node[8].content_store 	misses[8] 	3432
scalar abilene_network.node[8].content_store 	decision_yes[8] 	3431
scalar abilene_network.node[8].content_store 	decision_no[8] 	0
scalar abilene_network.node[8].content_store 	decision_ratio[8] 	1
scalar abilene_network.node[9].core_layer 	interests[9] 	1887
scalar abilene_network.node[9].core_layer 	data[9] 	1813
scalar abilene_network.node[9].content_store 	p_hit[9] 	0.03921568627451
scalar abilene_network.node[9].content_store 	hits[9] 	74
scalar abilene_network.node[9].content_store 	misses[9] 	1813
scalar abilene_network.node[9].content_store 	decision_yes[9] 	1813
scalar abilene_network.node[9].content_store 	decision_no[9] 	0
scalar abilene_network.node[9].content_store 	decision_ratio[9] 	1
scalar abilene_network.node[10].core_layer 	interests[10] 	1807
scalar abilene_network.node[10].core_layer 	data[10] 	1731
scalar abilene_network.node[10].content_store 	p_hit[10] 	0.042058660763697
scalar abilene_network.node[10].content_store 	hits[10] 	76
scalar abilene_network.node[10].content_store 	misses[10] 	1731
scalar abilene_network.node[10].content_store 	decision_yes[10] 	1731
scalar abilene_network.node[10].content_store 	decision_no[10] 	0
scalar abilene_network.node[10].content_store 	decision_ratio[10] 	1
scalar abilene_network.client[0] 	hdistance[0] 	5.5837479270315
scalar abilene_network.client[0] 	downloads[0] 	1809
scalar abilene_network.client[0] 	avg_time[0] 	0.029316881809
scalar abilene_network.client[1] 	hdistance[1] 	4.6910792951542
scalar abilene_network.client[1] 	downloads[1] 	1816
scalar abilene_network.client[1] 	avg_time[1] 	0.019078854175
scalar abilene_network.client[2] 	hdistance[2] 	3.781993204983
scalar abilene_network.client[2] 	downloads[2] 	1766
scalar abilene_network.client[2] 	avg_time[2] 	0.013562015408
scalar abilene_network.client[3] 	hdistance[3] 	2.8659340659341
scalar abilene_network.client[3] 	downloads[3] 	1820
scalar abilene_network.client[3] 	avg_time[3] 	0.009018746797
scalar abilene_network.client[4] 	hdistance[4] 	1.9078575466365
scalar abilene_network.client[4] 	downloads[4] 	1769
scalar abilene_network.client[4] 	avg_time[4] 	0.007354957147
scalar abilene_network.client[5] 	hdistance[5] 	0.95831077422848
scalar abilene_network.client[5] 	downloads[5] 	1847
scalar abilene_network.client[5] 	avg_time[5] 	0
scalar abilene_network.client[6] 	hdistance[6] 	1.894591611479
scalar abilene_network.client[6] 	downloads[6] 	1812
scalar abilene_network.client[6] 	avg_time[6] 	0.002107725819
scalar abilene_network.client[7] 	hdistance[7] 	2.8604522890237
scalar abilene_network.client[7] 	downloads[7] 	1813
scalar abilene_network.client[7] 	avg_time[7] 	0.007728747476
scalar abilene_network.client[8] 	hdistance[8] 	3.7794031597425
scalar abilene_network.client[8] 	downloads[8] 	1709
scalar abilene_network.client[8] 	avg_time[8] 	0.014841684771
scalar abilene_network.client[9] 	hdistance[9] 	4.6703762586116
scalar abilene_network.client[9] 	downloads[9] 	1887
scalar abilene_network.client[9] 	avg_time[9] 	0.028729664159
scalar abilene_network.client[10] 	hdistance[10] 	5.5860542335362
scalar abilene_network.client[10] 	downloads[10] 	1807
scalar abilene_network.client[10] 	avg_time[10] 	0.028437642044
