version 2
run General-5965-20140423-21:02:43-775
attr D lce
attr F nrr
attr R lru
attr a 1.2
attr configname General
attr csize 2
attr ctlg 10^3
attr datetime 20140423-21:02:43
attr experiment General
attr inifile omnetpp.ini
attr iterationvars "$net=simple_scenario, $rep=17, $priceratiovalue=6, $a=1.2, $ctlg=10^3, $F=nrr, $ttl=1000, $D=lce, $R=lru, $csize=2"
attr iterationvars2 "$net=simple_scenario, $rep=17, $priceratiovalue=6, $a=1.2, $ctlg=10^3, $F=nrr, $ttl=1000, $D=lce, $R=lru, $csize=2, $repetition=0"
attr measurement "$net=simple_scenario, $rep=17, $priceratiovalue=6, $a=1.2, $ctlg=10^3, $F=nrr, $ttl=1000, $D=lce, $R=lru, $csize=2"
attr net simple_scenario
attr network networks.${net=simple_scenario}_network
attr priceratiovalue 6
attr processid 775
attr rep 17
attr repetition 0
attr replication #0
attr resultdir results
attr runnumber 5965
attr seedset 17
attr ttl 1000

scalar . 	a 	1.2
scalar . 	csize 	2
scalar . 	priceratiovalue 	6
scalar . 	rep 	17
scalar . 	ttl 	1000
scalar simple_scenario_network.content_distribution 	repo-0 	3
scalar simple_scenario_network.content_distribution 	repo-1 	4
scalar simple_scenario_network.content_distribution 	client-0 	0
scalar simple_scenario_network.content_distribution 	repo-0_card 	481
scalar simple_scenario_network.content_distribution 	repo-1_card 	519
scalar simple_scenario_network.statistics 	p_hit 	0.077867583691023
scalar simple_scenario_network.statistics 	interests 	95613.6
scalar simple_scenario_network.statistics 	data 	59625.8
scalar simple_scenario_network.statistics 	hdistance 	2.4499524838973
scalar simple_scenario_network.statistics 	avg_time 	0.001985149985
scalar simple_scenario_network.statistics 	downloads 	179939
scalar simple_scenario_network.statistics 	total_cost 	83945
scalar simple_scenario_network.node[0].core_layer 	interests[0] 	179939
scalar simple_scenario_network.node[0].core_layer 	data[0] 	155416
scalar simple_scenario_network.node[0].core_layer 	repo_int[0] 	142713
scalar simple_scenario_network.node[0].content_store 	p_hit[0] 	0.13628507438632
scalar simple_scenario_network.node[0].content_store 	hits[0] 	24523
scalar simple_scenario_network.node[0].content_store 	misses[0] 	155416
scalar simple_scenario_network.node[1].core_layer 	interests[1] 	56911
scalar simple_scenario_network.node[1].core_layer 	data[1] 	53732
scalar simple_scenario_network.node[1].content_store 	p_hit[1] 	0.055859148495019
scalar simple_scenario_network.node[1].content_store 	hits[1] 	3179
scalar simple_scenario_network.node[1].content_store 	misses[1] 	53732
scalar simple_scenario_network.node[2].core_layer 	interests[2] 	98505
scalar simple_scenario_network.node[2].core_layer 	data[2] 	88981
scalar simple_scenario_network.node[2].content_store 	p_hit[2] 	0.096685447439216
scalar simple_scenario_network.node[2].content_store 	hits[2] 	9524
scalar simple_scenario_network.node[2].content_store 	misses[2] 	88981
scalar simple_scenario_network.node[3].core_layer 	interests[3] 	53732
scalar simple_scenario_network.node[3].core_layer 	repo_load[3] 	53732
scalar simple_scenario_network.node[3].core_layer 	data[3] 	0
scalar simple_scenario_network.node[3].content_store 	p_hit[3] 	0
scalar simple_scenario_network.node[3].content_store 	hits[3] 	0
scalar simple_scenario_network.node[3].content_store 	misses[3] 	53732
scalar simple_scenario_network.node[4].core_layer 	interests[4] 	88981
scalar simple_scenario_network.node[4].core_layer 	repo_load[4] 	88981
scalar simple_scenario_network.node[4].core_layer 	data[4] 	0
scalar simple_scenario_network.node[4].content_store 	p_hit[4] 	0
scalar simple_scenario_network.node[4].content_store 	hits[4] 	0
scalar simple_scenario_network.node[4].content_store 	misses[4] 	88981
scalar simple_scenario_network.client[0] 	hdistance[0] 	2.4499524838973
scalar simple_scenario_network.client[0] 	downloads[0] 	179939
scalar simple_scenario_network.client[0] 	avg_time[0] 	0.001985149985
