version 2
run General-8-20140703-16:32:09-5274
attr D fix0.01
attr F nrr
attr R lru
attr a 1.2
attr configname General
attr csize 1e3
attr ctlg 1e5
attr datetime 20140703-16:32:09
attr experiment General
attr inifile omnetpp.ini
attr iterationvars "$net=geant_cost, $rep=1, $priceratiovalue=10, $weights=0.333_0.333_0.334, $lambda=100, $a=1.2, $ctlg=1e5, $F=nrr, $ttl=1000, $D=fix0.01, $xi=1, $R=lru, $csize=1e3, $pricebits=0, $window=60, $variance=0.05, $mytime=1800"
attr iterationvars2 "$net=geant_cost, $rep=1, $priceratiovalue=10, $weights=0.333_0.333_0.334, $lambda=100, $a=1.2, $ctlg=1e5, $F=nrr, $ttl=1000, $D=fix0.01, $xi=1, $R=lru, $csize=1e3, $pricebits=0, $window=60, $variance=0.05, $mytime=1800, $repetition=0"
attr lambda 100
attr measurement "$net=geant_cost, $rep=1, $priceratiovalue=10, $weights=0.333_0.333_0.334, $lambda=100, $a=1.2, $ctlg=1e5, $F=nrr, $ttl=1000, $D=fix0.01, $xi=1, $R=lru, $csize=1e3, $pricebits=0, $window=60, $variance=0.05, $mytime=1800"
attr mytime 1800
attr net geant_cost
attr network "networks.${net=geant_cost, abilene_cost}_network"
attr pricebits 0
attr priceratiovalue 10
attr processid 5274
attr rep 1
attr repetition 0
attr replication #0
attr resultdir results
attr runnumber 8
attr seedset 1
attr ttl 1000
attr variance 0.05
attr weights 0.333_0.333_0.334
attr window 60
attr xi 1

scalar . 	a 	1.2
scalar . 	csize 	1e3
scalar . 	ctlg 	1e5
scalar . 	lambda 	100
scalar . 	mytime 	1800
scalar . 	pricebits 	0
scalar . 	priceratiovalue 	10
scalar . 	rep 	1
scalar . 	ttl 	1000
scalar . 	variance 	0.05
scalar . 	window 	60
scalar . 	xi 	1
scalar geant_cost_network.content_distribution 	repo-0 	22
scalar geant_cost_network.content_distribution 	repo-1 	23
scalar geant_cost_network.content_distribution 	repo-2 	24
scalar geant_cost_network.content_distribution 	client-0 	20
scalar geant_cost_network.content_distribution 	client-1 	10
scalar geant_cost_network.content_distribution 	client-2 	12
scalar geant_cost_network.content_distribution 	client-3 	9
scalar geant_cost_network.content_distribution 	client-4 	5
scalar geant_cost_network.content_distribution 	repo-0_card 	33396
scalar geant_cost_network.content_distribution 	repo-1_card 	33039
scalar geant_cost_network.content_distribution 	repo-2_card 	33565
scalar geant_cost_network.statistics 	repo_popularity[0] 	0.22765990951337
scalar geant_cost_network.statistics 	repo_popularity[1] 	0.24041996934949
scalar geant_cost_network.statistics 	repo_popularity[2] 	0.53192012113714
scalar geant_cost_network.node[7].face$o[4].channel 	price[7] 	0
scalar geant_cost_network.node[7].face$o[4].channel 	represented_price[7] 	0
scalar geant_cost_network.node[8].face$o[3].channel 	price[8] 	0
scalar geant_cost_network.node[8].face$o[3].channel 	represented_price[8] 	0
scalar geant_cost_network.node[21].face$o[5].channel 	price[21] 	0
scalar geant_cost_network.node[21].face$o[5].channel 	represented_price[21] 	0
scalar geant_cost_network.node[22].face$o[1].channel 	price[22] 	0
scalar geant_cost_network.node[22].face$o[1].channel 	represented_price[22] 	0
scalar geant_cost_network.node[23].face$o[1].channel 	price[23] 	1
scalar geant_cost_network.node[23].face$o[1].channel 	represented_price[23] 	1
scalar geant_cost_network.node[24].face$o[1].channel 	price[24] 	10
scalar geant_cost_network.node[24].face$o[1].channel 	represented_price[24] 	10
scalar geant_cost_network.statistics 	p_hit 	0.35169239387923
scalar geant_cost_network.statistics 	interests 	81540.12
scalar geant_cost_network.statistics 	data 	44062.64
scalar geant_cost_network.statistics 	hdistance 	1.4108745898115
scalar geant_cost_network.statistics 	avg_time 	0.003151792293
scalar geant_cost_network.statistics 	downloads 	936629
scalar geant_cost_network.statistics 	total_cost 	805170
scalar geant_cost_network.statistics 	total_replicas 	100000
scalar geant_cost_network.statistics 	inner_hit 	0.76561797680832
scalar geant_cost_network.statistics 	interests_sent 	936934
scalar geant_cost_network.node[0].core_layer 	interests[0] 	0
scalar geant_cost_network.node[0].core_layer 	data[0] 	0
scalar geant_cost_network.node[0].core_layer 	repo_int[0] 	219529
scalar geant_cost_network.node[0].content_store 	p_hit[0] 	-nan
scalar geant_cost_network.node[0].content_store 	hits[0] 	0
scalar geant_cost_network.node[0].content_store 	misses[0] 	0
scalar geant_cost_network.node[0].content_store 	decision_yes[0] 	0
scalar geant_cost_network.node[0].content_store 	decision_no[0] 	0
scalar geant_cost_network.node[0].content_store 	decision_ratio[0] 	0
scalar geant_cost_network.node[1].core_layer 	interests[1] 	0
scalar geant_cost_network.node[1].core_layer 	data[1] 	0
scalar geant_cost_network.node[1].content_store 	p_hit[1] 	-nan
scalar geant_cost_network.node[1].content_store 	hits[1] 	0
scalar geant_cost_network.node[1].content_store 	misses[1] 	0
scalar geant_cost_network.node[1].content_store 	decision_yes[1] 	0
scalar geant_cost_network.node[1].content_store 	decision_no[1] 	0
scalar geant_cost_network.node[1].content_store 	decision_ratio[1] 	0
scalar geant_cost_network.node[2].core_layer 	interests[2] 	0
scalar geant_cost_network.node[2].core_layer 	data[2] 	0
scalar geant_cost_network.node[2].content_store 	p_hit[2] 	-nan
scalar geant_cost_network.node[2].content_store 	hits[2] 	0
scalar geant_cost_network.node[2].content_store 	misses[2] 	0
scalar geant_cost_network.node[2].content_store 	decision_yes[2] 	0
scalar geant_cost_network.node[2].content_store 	decision_no[2] 	0
scalar geant_cost_network.node[2].content_store 	decision_ratio[2] 	0
scalar geant_cost_network.node[3].core_layer 	interests[3] 	108500
scalar geant_cost_network.node[3].core_layer 	data[3] 	82756
scalar geant_cost_network.node[3].content_store 	p_hit[3] 	0.23723502304147
scalar geant_cost_network.node[3].content_store 	hits[3] 	25740
scalar geant_cost_network.node[3].content_store 	misses[3] 	82760
scalar geant_cost_network.node[3].content_store 	decision_yes[3] 	809
scalar geant_cost_network.node[3].content_store 	decision_no[3] 	81947
scalar geant_cost_network.node[3].content_store 	decision_ratio[3] 	0.0097757262313307
scalar geant_cost_network.node[4].core_layer 	interests[4] 	116126
scalar geant_cost_network.node[4].core_layer 	data[4] 	103582
scalar geant_cost_network.node[4].content_store 	p_hit[4] 	0.10801198697966
scalar geant_cost_network.node[4].content_store 	hits[4] 	12543
scalar geant_cost_network.node[4].content_store 	misses[4] 	103583
scalar geant_cost_network.node[4].content_store 	decision_yes[4] 	962
scalar geant_cost_network.node[4].content_store 	decision_no[4] 	102620
scalar geant_cost_network.node[4].content_store 	decision_ratio[4] 	0.0092873279141164
scalar geant_cost_network.node[5].core_layer 	interests[5] 	194073
scalar geant_cost_network.node[5].core_layer 	data[5] 	76462
scalar geant_cost_network.node[5].content_store 	p_hit[5] 	0.6055350306328
scalar geant_cost_network.node[5].content_store 	hits[5] 	117518
scalar geant_cost_network.node[5].content_store 	misses[5] 	76555
scalar geant_cost_network.node[5].content_store 	decision_yes[5] 	755
scalar geant_cost_network.node[5].content_store 	decision_no[5] 	75707
scalar geant_cost_network.node[5].content_store 	decision_ratio[5] 	0.0098741858701054
scalar geant_cost_network.node[6].core_layer 	interests[6] 	38061
scalar geant_cost_network.node[6].core_layer 	data[6] 	32017
scalar geant_cost_network.node[6].content_store 	p_hit[6] 	0.15879771945036
scalar geant_cost_network.node[6].content_store 	hits[6] 	6044
scalar geant_cost_network.node[6].content_store 	misses[6] 	32017
scalar geant_cost_network.node[6].content_store 	decision_yes[6] 	307
scalar geant_cost_network.node[6].content_store 	decision_no[6] 	31710
scalar geant_cost_network.node[6].content_store 	decision_ratio[6] 	0.0095886560264859
scalar geant_cost_network.node[7].core_layer 	interests[7] 	116814
scalar geant_cost_network.node[7].core_layer 	data[7] 	107572
scalar geant_cost_network.node[7].content_store 	p_hit[7] 	0.079091547246049
scalar geant_cost_network.node[7].content_store 	hits[7] 	9239
scalar geant_cost_network.node[7].content_store 	misses[7] 	107575
scalar geant_cost_network.node[7].content_store 	decision_yes[7] 	1028
scalar geant_cost_network.node[7].content_store 	decision_no[7] 	106544
scalar geant_cost_network.node[7].content_store 	decision_ratio[7] 	0.0095563901386978
scalar geant_cost_network.node[8].core_layer 	interests[8] 	120678
scalar geant_cost_network.node[8].core_layer 	data[8] 	108593
scalar geant_cost_network.node[8].content_store 	p_hit[8] 	0.10014252804985
scalar geant_cost_network.node[8].content_store 	hits[8] 	12085
scalar geant_cost_network.node[8].content_store 	misses[8] 	108593
scalar geant_cost_network.node[8].content_store 	decision_yes[8] 	1107
scalar geant_cost_network.node[8].content_store 	decision_no[8] 	107486
scalar geant_cost_network.node[8].content_store 	decision_ratio[8] 	0.010194027239325
scalar geant_cost_network.node[9].core_layer 	interests[9] 	291341
scalar geant_cost_network.node[9].core_layer 	data[9] 	161001
scalar geant_cost_network.node[9].content_store 	p_hit[9] 	0.44693675109236
scalar geant_cost_network.node[9].content_store 	hits[9] 	130211
scalar geant_cost_network.node[9].content_store 	misses[9] 	161130
scalar geant_cost_network.node[9].content_store 	decision_yes[9] 	1616
scalar geant_cost_network.node[9].content_store 	decision_no[9] 	159384
scalar geant_cost_network.node[9].content_store 	decision_ratio[9] 	0.010037267080745
scalar geant_cost_network.node[10].core_layer 	interests[10] 	195793
scalar geant_cost_network.node[10].core_layer 	data[10] 	75131
scalar geant_cost_network.node[10].content_store 	p_hit[10] 	0.61597197039731
scalar geant_cost_network.node[10].content_store 	hits[10] 	120603
scalar geant_cost_network.node[10].content_store 	misses[10] 	75190
scalar geant_cost_network.node[10].content_store 	decision_yes[10] 	735
scalar geant_cost_network.node[10].content_store 	decision_no[10] 	74396
scalar geant_cost_network.node[10].content_store 	decision_ratio[10] 	0.009782912512811
scalar geant_cost_network.node[11].core_layer 	interests[11] 	0
scalar geant_cost_network.node[11].core_layer 	data[11] 	0
scalar geant_cost_network.node[11].content_store 	p_hit[11] 	-nan
scalar geant_cost_network.node[11].content_store 	hits[11] 	0
scalar geant_cost_network.node[11].content_store 	misses[11] 	0
scalar geant_cost_network.node[11].content_store 	decision_yes[11] 	0
scalar geant_cost_network.node[11].content_store 	decision_no[11] 	0
scalar geant_cost_network.node[11].content_store 	decision_ratio[11] 	0
scalar geant_cost_network.node[12].core_layer 	interests[12] 	255173
scalar geant_cost_network.node[12].core_layer 	data[12] 	130207
scalar geant_cost_network.node[12].content_store 	p_hit[12] 	0.48915441680742
scalar geant_cost_network.node[12].content_store 	hits[12] 	124819
scalar geant_cost_network.node[12].content_store 	misses[12] 	130354
scalar geant_cost_network.node[12].content_store 	decision_yes[12] 	1283
scalar geant_cost_network.node[12].content_store 	decision_no[12] 	128924
scalar geant_cost_network.node[12].content_store 	decision_ratio[12] 	0.0098535409002588
scalar geant_cost_network.node[13].core_layer 	interests[13] 	12103
scalar geant_cost_network.node[13].core_layer 	data[13] 	3676
scalar geant_cost_network.node[13].content_store 	p_hit[13] 	0.69627365116087
scalar geant_cost_network.node[13].content_store 	hits[13] 	8427
scalar geant_cost_network.node[13].content_store 	misses[13] 	3676
scalar geant_cost_network.node[13].content_store 	decision_yes[13] 	39
scalar geant_cost_network.node[13].content_store 	decision_no[13] 	3637
scalar geant_cost_network.node[13].content_store 	decision_ratio[13] 	0.010609357997824
scalar geant_cost_network.node[14].core_layer 	interests[14] 	36910
scalar geant_cost_network.node[14].core_layer 	data[14] 	24194
scalar geant_cost_network.node[14].content_store 	p_hit[14] 	0.34451368192902
scalar geant_cost_network.node[14].content_store 	hits[14] 	12716
scalar geant_cost_network.node[14].content_store 	misses[14] 	24194
scalar geant_cost_network.node[14].content_store 	decision_yes[14] 	220
scalar geant_cost_network.node[14].content_store 	decision_no[14] 	23974
scalar geant_cost_network.node[14].content_store 	decision_ratio[14] 	0.0090931635942796
scalar geant_cost_network.node[15].core_layer 	interests[15] 	0
scalar geant_cost_network.node[15].core_layer 	data[15] 	0
scalar geant_cost_network.node[15].content_store 	p_hit[15] 	-nan
scalar geant_cost_network.node[15].content_store 	hits[15] 	0
scalar geant_cost_network.node[15].content_store 	misses[15] 	0
scalar geant_cost_network.node[15].content_store 	decision_yes[15] 	0
scalar geant_cost_network.node[15].content_store 	decision_no[15] 	0
scalar geant_cost_network.node[15].content_store 	decision_ratio[15] 	0
scalar geant_cost_network.node[16].core_layer 	interests[16] 	0
scalar geant_cost_network.node[16].core_layer 	data[16] 	0
scalar geant_cost_network.node[16].content_store 	p_hit[16] 	-nan
scalar geant_cost_network.node[16].content_store 	hits[16] 	0
scalar geant_cost_network.node[16].content_store 	misses[16] 	0
scalar geant_cost_network.node[16].content_store 	decision_yes[16] 	0
scalar geant_cost_network.node[16].content_store 	decision_no[16] 	0
scalar geant_cost_network.node[16].content_store 	decision_ratio[16] 	0
scalar geant_cost_network.node[17].core_layer 	interests[17] 	0
scalar geant_cost_network.node[17].core_layer 	data[17] 	0
scalar geant_cost_network.node[17].content_store 	p_hit[17] 	-nan
scalar geant_cost_network.node[17].content_store 	hits[17] 	0
scalar geant_cost_network.node[17].content_store 	misses[17] 	0
scalar geant_cost_network.node[17].content_store 	decision_yes[17] 	0
scalar geant_cost_network.node[17].content_store 	decision_no[17] 	0
scalar geant_cost_network.node[17].content_store 	decision_ratio[17] 	0
scalar geant_cost_network.node[18].core_layer 	interests[18] 	62734
scalar geant_cost_network.node[18].core_layer 	data[18] 	48926
scalar geant_cost_network.node[18].content_store 	p_hit[18] 	0.22010393088277
scalar geant_cost_network.node[18].content_store 	hits[18] 	13808
scalar geant_cost_network.node[18].content_store 	misses[18] 	48926
scalar geant_cost_network.node[18].content_store 	decision_yes[18] 	496
scalar geant_cost_network.node[18].content_store 	decision_no[18] 	48430
scalar geant_cost_network.node[18].content_store 	decision_ratio[18] 	0.01013775906471
scalar geant_cost_network.node[19].core_layer 	interests[19] 	0
scalar geant_cost_network.node[19].core_layer 	data[19] 	0
scalar geant_cost_network.node[19].content_store 	p_hit[19] 	-nan
scalar geant_cost_network.node[19].content_store 	hits[19] 	0
scalar geant_cost_network.node[19].content_store 	misses[19] 	0
scalar geant_cost_network.node[19].content_store 	decision_yes[19] 	0
scalar geant_cost_network.node[19].content_store 	decision_no[19] 	0
scalar geant_cost_network.node[19].content_store 	decision_ratio[19] 	0
scalar geant_cost_network.node[20].core_layer 	interests[20] 	189168
scalar geant_cost_network.node[20].core_layer 	data[20] 	74233
scalar geant_cost_network.node[20].content_store 	p_hit[20] 	0.60733845047788
scalar geant_cost_network.node[20].content_store 	hits[20] 	114889
scalar geant_cost_network.node[20].content_store 	misses[20] 	74279
scalar geant_cost_network.node[20].content_store 	decision_yes[20] 	769
scalar geant_cost_network.node[20].content_store 	decision_no[20] 	73464
scalar geant_cost_network.node[20].content_store 	decision_ratio[20] 	0.010359274177253
scalar geant_cost_network.node[21].core_layer 	interests[21] 	81500
scalar geant_cost_network.node[21].core_layer 	data[21] 	73216
scalar geant_cost_network.node[21].content_store 	p_hit[21] 	0.10164417177914
scalar geant_cost_network.node[21].content_store 	hits[21] 	8284
scalar geant_cost_network.node[21].content_store 	misses[21] 	73216
scalar geant_cost_network.node[21].content_store 	decision_yes[21] 	754
scalar geant_cost_network.node[21].content_store 	decision_no[21] 	72462
scalar geant_cost_network.node[21].content_store 	decision_ratio[21] 	0.010298295454545
scalar geant_cost_network.node[22].core_layer 	interests[22] 	73303
scalar geant_cost_network.node[22].core_layer 	repo_load[22] 	73303
scalar geant_cost_network.node[22].core_layer 	data[22] 	0
scalar geant_cost_network.node[22].content_store 	p_hit[22] 	0
scalar geant_cost_network.node[22].content_store 	hits[22] 	0
scalar geant_cost_network.node[22].content_store 	misses[22] 	73303
scalar geant_cost_network.node[22].content_store 	decision_yes[22] 	0
scalar geant_cost_network.node[22].content_store 	decision_no[22] 	73303
scalar geant_cost_network.node[22].content_store 	decision_ratio[22] 	0
scalar geant_cost_network.node[23].core_layer 	interests[23] 	73010
scalar geant_cost_network.node[23].core_layer 	repo_load[23] 	73010
scalar geant_cost_network.node[23].core_layer 	data[23] 	0
scalar geant_cost_network.node[23].content_store 	p_hit[23] 	0
scalar geant_cost_network.node[23].content_store 	hits[23] 	0
scalar geant_cost_network.node[23].content_store 	misses[23] 	73010
scalar geant_cost_network.node[23].content_store 	decision_yes[23] 	0
scalar geant_cost_network.node[23].content_store 	decision_no[23] 	73010
scalar geant_cost_network.node[23].content_store 	decision_ratio[23] 	0
scalar geant_cost_network.node[24].core_layer 	interests[24] 	73216
scalar geant_cost_network.node[24].core_layer 	repo_load[24] 	73216
scalar geant_cost_network.node[24].core_layer 	data[24] 	0
scalar geant_cost_network.node[24].content_store 	p_hit[24] 	0
scalar geant_cost_network.node[24].content_store 	hits[24] 	0
scalar geant_cost_network.node[24].content_store 	misses[24] 	73216
scalar geant_cost_network.node[24].content_store 	decision_yes[24] 	0
scalar geant_cost_network.node[24].content_store 	decision_no[24] 	73216
scalar geant_cost_network.node[24].content_store 	decision_ratio[24] 	0
scalar geant_cost_network.client[5] 	hdistance[5] 	1.2650058197273
scalar geant_cost_network.client[5] 	downloads[5] 	187294
scalar geant_cost_network.client[5] 	avg_time[5] 	0.004013670009
scalar geant_cost_network.client[5] 	interests_sent[5] 	187386
scalar geant_cost_network.client[9] 	hdistance[9] 	1.3142165429446
scalar geant_cost_network.client[9] 	downloads[9] 	187113
scalar geant_cost_network.client[9] 	avg_time[9] 	0.002530556432
scalar geant_cost_network.client[9] 	interests_sent[9] 	187167
scalar geant_cost_network.client[10] 	hdistance[10] 	1.6679975626964
scalar geant_cost_network.client[10] 	downloads[10] 	187092
scalar geant_cost_network.client[10] 	avg_time[10] 	0.003228440513
scalar geant_cost_network.client[10] 	interests_sent[10] 	187151
scalar geant_cost_network.client[12] 	hdistance[12] 	1.3662950931966
scalar geant_cost_network.client[12] 	downloads[12] 	186863
scalar geant_cost_network.client[12] 	avg_time[12] 	0.003151276034
scalar geant_cost_network.client[12] 	interests_sent[12] 	186917
scalar geant_cost_network.client[20] 	hdistance[20] 	1.4408579304923
scalar geant_cost_network.client[20] 	downloads[20] 	188267
scalar geant_cost_network.client[20] 	avg_time[20] 	0.002835018478
scalar geant_cost_network.client[20] 	interests_sent[20] 	188313
