version 2
run General-518-20140424-12:52:06-13206
attr D lce
attr F nrr
attr R lru
attr a 1.2
attr configname General
attr csize 10
attr ctlg 10^3
attr datetime 20140424-12:52:06
attr experiment General
attr inifile omnetpp.ini
attr iterationvars "$net=simple_scenario, $rep=3, $priceratiovalue=5, $a=1.2, $ctlg=10^3, $F=nrr, $ttl=1000, $D=lce, $R=lru, $csize=10"
attr iterationvars2 "$net=simple_scenario, $rep=3, $priceratiovalue=5, $a=1.2, $ctlg=10^3, $F=nrr, $ttl=1000, $D=lce, $R=lru, $csize=10, $repetition=0"
attr measurement "$net=simple_scenario, $rep=3, $priceratiovalue=5, $a=1.2, $ctlg=10^3, $F=nrr, $ttl=1000, $D=lce, $R=lru, $csize=10"
attr net simple_scenario
attr network networks.${net=simple_scenario}_network
attr priceratiovalue 5
attr processid 13206
attr rep 3
attr repetition 0
attr replication #0
attr resultdir results
attr runnumber 518
attr seedset 3
attr ttl 1000

scalar . 	a 	1.2
scalar . 	csize 	10
scalar . 	priceratiovalue 	5
scalar . 	rep 	3
scalar . 	ttl 	1000
scalar simple_scenario_network.content_distribution 	repo-0 	3
scalar simple_scenario_network.content_distribution 	repo-1 	4
scalar simple_scenario_network.content_distribution 	client-0 	0
scalar simple_scenario_network.content_distribution 	repo-0_card 	524
scalar simple_scenario_network.content_distribution 	repo-1_card 	476
scalar simple_scenario_network.statistics 	p_hit 	0.24247359681169
scalar simple_scenario_network.statistics 	interests 	75275
scalar simple_scenario_network.statistics 	data 	39250.6
scalar simple_scenario_network.statistics 	hdistance 	1.5828938164133
scalar simple_scenario_network.statistics 	avg_time 	0.001985570271
scalar simple_scenario_network.statistics 	downloads 	180122
scalar simple_scenario_network.statistics 	total_cost 	42480
scalar simple_scenario_network.node[0].core_layer 	interests[0] 	180122
scalar simple_scenario_network.node[0].core_layer 	data[0] 	107392
scalar simple_scenario_network.node[0].core_layer 	repo_int[0] 	88861
scalar simple_scenario_network.node[0].content_store 	p_hit[0] 	0.40378188116943
scalar simple_scenario_network.node[0].content_store 	hits[0] 	72730
scalar simple_scenario_network.node[0].content_store 	misses[0] 	107392
scalar simple_scenario_network.node[1].core_layer 	interests[1] 	56159
scalar simple_scenario_network.node[1].core_layer 	data[1] 	47355
scalar simple_scenario_network.node[1].content_store 	p_hit[1] 	0.15676917324026
scalar simple_scenario_network.node[1].content_store 	hits[1] 	8804
scalar simple_scenario_network.node[1].content_store 	misses[1] 	47355
scalar simple_scenario_network.node[2].core_layer 	interests[2] 	51233
scalar simple_scenario_network.node[2].core_layer 	data[2] 	41506
scalar simple_scenario_network.node[2].content_store 	p_hit[2] 	0.18985809927195
scalar simple_scenario_network.node[2].content_store 	hits[2] 	9727
scalar simple_scenario_network.node[2].content_store 	misses[2] 	41506
scalar simple_scenario_network.node[3].core_layer 	interests[3] 	47355
scalar simple_scenario_network.node[3].core_layer 	repo_load[3] 	47355
scalar simple_scenario_network.node[3].core_layer 	data[3] 	0
scalar simple_scenario_network.node[3].content_store 	p_hit[3] 	0
scalar simple_scenario_network.node[3].content_store 	hits[3] 	0
scalar simple_scenario_network.node[3].content_store 	misses[3] 	47355
scalar simple_scenario_network.node[4].core_layer 	interests[4] 	41506
scalar simple_scenario_network.node[4].core_layer 	repo_load[4] 	41506
scalar simple_scenario_network.node[4].core_layer 	data[4] 	0
scalar simple_scenario_network.node[4].content_store 	p_hit[4] 	0
scalar simple_scenario_network.node[4].content_store 	hits[4] 	0
scalar simple_scenario_network.node[4].content_store 	misses[4] 	41506
scalar simple_scenario_network.client[0] 	hdistance[0] 	1.5828938164133
scalar simple_scenario_network.client[0] 	downloads[0] 	180122
scalar simple_scenario_network.client[0] 	avg_time[0] 	0.001985570271
