version 2
run General-2267-20140423-19:29:17-28232
attr D costprob0.01
attr F nrr
attr R lru
attr a 1.2
attr configname General
attr csize 2
attr ctlg 10^3
attr datetime 20140423-19:29:17
attr experiment General
attr inifile omnetpp.ini
attr iterationvars "$net=simple_scenario, $rep=7, $priceratiovalue=3, $a=1.2, $ctlg=10^3, $F=nrr, $ttl=1000, $D=costprob0.01, $R=lru, $csize=2"
attr iterationvars2 "$net=simple_scenario, $rep=7, $priceratiovalue=3, $a=1.2, $ctlg=10^3, $F=nrr, $ttl=1000, $D=costprob0.01, $R=lru, $csize=2, $repetition=0"
attr measurement "$net=simple_scenario, $rep=7, $priceratiovalue=3, $a=1.2, $ctlg=10^3, $F=nrr, $ttl=1000, $D=costprob0.01, $R=lru, $csize=2"
attr net simple_scenario
attr network networks.${net=simple_scenario}_network
attr priceratiovalue 3
attr processid 28232
attr rep 7
attr repetition 0
attr replication #0
attr resultdir results
attr runnumber 2267
attr seedset 7
attr ttl 1000

scalar . 	a 	1.2
scalar . 	csize 	2
scalar . 	priceratiovalue 	3
scalar . 	rep 	7
scalar . 	ttl 	1000
scalar simple_scenario_network.content_distribution 	repo-0 	3
scalar simple_scenario_network.content_distribution 	repo-1 	4
scalar simple_scenario_network.content_distribution 	client-0 	0
scalar simple_scenario_network.content_distribution 	repo-0_card 	505
scalar simple_scenario_network.content_distribution 	repo-1_card 	495
scalar simple_scenario_network.statistics 	p_hit 	0.15564590006085
scalar simple_scenario_network.statistics 	interests 	89730.6
scalar simple_scenario_network.statistics 	data 	53713.4
scalar simple_scenario_network.statistics 	hdistance 	2.1035616316649
scalar simple_scenario_network.statistics 	avg_time 	0.001985695259
scalar simple_scenario_network.statistics 	downloads 	180086
scalar simple_scenario_network.statistics 	total_cost 	57323
scalar simple_scenario_network.node[0].core_layer 	interests[0] 	180086
scalar simple_scenario_network.node[0].core_layer 	data[0] 	158312
scalar simple_scenario_network.node[0].core_layer 	repo_int[0] 	110255
scalar simple_scenario_network.node[0].content_store 	p_hit[0] 	0.12090889908155
scalar simple_scenario_network.node[0].content_store 	hits[0] 	21774
scalar simple_scenario_network.node[0].content_store 	misses[0] 	158312
scalar simple_scenario_network.node[1].core_layer 	interests[1] 	69082
scalar simple_scenario_network.node[1].core_layer 	data[1] 	50735
scalar simple_scenario_network.node[1].content_store 	p_hit[1] 	0.2655829304305
scalar simple_scenario_network.node[1].content_store 	hits[1] 	18347
scalar simple_scenario_network.node[1].content_store 	misses[1] 	50735
scalar simple_scenario_network.node[2].core_layer 	interests[2] 	89230
scalar simple_scenario_network.node[2].core_layer 	data[2] 	59520
scalar simple_scenario_network.node[2].content_store 	p_hit[2] 	0.33295976689454
scalar simple_scenario_network.node[2].content_store 	hits[2] 	29710
scalar simple_scenario_network.node[2].content_store 	misses[2] 	59520
scalar simple_scenario_network.node[3].core_layer 	interests[3] 	50735
scalar simple_scenario_network.node[3].core_layer 	repo_load[3] 	50735
scalar simple_scenario_network.node[3].core_layer 	data[3] 	0
scalar simple_scenario_network.node[3].content_store 	p_hit[3] 	0
scalar simple_scenario_network.node[3].content_store 	hits[3] 	0
scalar simple_scenario_network.node[3].content_store 	misses[3] 	50735
scalar simple_scenario_network.node[4].core_layer 	interests[4] 	59520
scalar simple_scenario_network.node[4].core_layer 	repo_load[4] 	59520
scalar simple_scenario_network.node[4].core_layer 	data[4] 	0
scalar simple_scenario_network.node[4].content_store 	p_hit[4] 	0
scalar simple_scenario_network.node[4].content_store 	hits[4] 	0
scalar simple_scenario_network.node[4].content_store 	misses[4] 	59520
scalar simple_scenario_network.client[0] 	hdistance[0] 	2.1035616316649
scalar simple_scenario_network.client[0] 	downloads[0] 	180086
scalar simple_scenario_network.client[0] 	avg_time[0] 	0.001985695259
