version 2
run General-0-20140626-15:49:51-10435
attr D costprobprodplain0.01
attr F nrr
attr R lru
attr a 1
attr configname General
attr csize 1e3
attr ctlg 1e5
attr datetime 20140626-15:49:51
attr experiment General
attr inifile omnetpp.ini
attr iterationvars "$net=abilene_cost, $rep=1, $priceratiovalue=10, $weights=0.333_0.333_0.334, $lambda=100, $a=1, $ctlg=1e5, $F=nrr, $ttl=1000, $D=costprobprodplain0.01, $xi=1, $R=lru, $csize=1e3, $pricebits=0, $mytime=1800"
attr iterationvars2 "$net=abilene_cost, $rep=1, $priceratiovalue=10, $weights=0.333_0.333_0.334, $lambda=100, $a=1, $ctlg=1e5, $F=nrr, $ttl=1000, $D=costprobprodplain0.01, $xi=1, $R=lru, $csize=1e3, $pricebits=0, $mytime=1800, $repetition=0"
attr lambda 100
attr measurement "$net=abilene_cost, $rep=1, $priceratiovalue=10, $weights=0.333_0.333_0.334, $lambda=100, $a=1, $ctlg=1e5, $F=nrr, $ttl=1000, $D=costprobprodplain0.01, $xi=1, $R=lru, $csize=1e3, $pricebits=0, $mytime=1800"
attr mytime 1800
attr net abilene_cost
attr network networks.${net=abilene_cost}_network
attr pricebits 0
attr priceratiovalue 10
attr processid 10435
attr rep 1
attr repetition 0
attr replication #0
attr resultdir results
attr runnumber 0
attr seedset 1
attr ttl 1000
attr weights 0.333_0.333_0.334
attr xi 1

scalar . 	a 	1
scalar . 	csize 	1e3
scalar . 	ctlg 	1e5
scalar . 	lambda 	100
scalar . 	mytime 	1800
scalar . 	pricebits 	0
scalar . 	priceratiovalue 	10
scalar . 	rep 	1
scalar . 	ttl 	1000
scalar . 	xi 	1
scalar abilene_cost_network.content_distribution 	repo-0 	11
scalar abilene_cost_network.content_distribution 	repo-1 	12
scalar abilene_cost_network.content_distribution 	repo-2 	13
scalar abilene_cost_network.content_distribution 	client-0 	5
scalar abilene_cost_network.content_distribution 	client-1 	0
scalar abilene_cost_network.content_distribution 	client-2 	9
scalar abilene_cost_network.content_distribution 	repo-0_card 	33396
scalar abilene_cost_network.content_distribution 	repo-1_card 	33039
scalar abilene_cost_network.content_distribution 	repo-2_card 	33565
scalar abilene_cost_network.statistics 	repo_popularity[0] 	0.28686251265602
scalar abilene_cost_network.statistics 	repo_popularity[1] 	0.2886063426465
scalar abilene_cost_network.statistics 	repo_popularity[2] 	0.42453114469748
scalar abilene_cost_network.statistics 	stabilization_time 	7018.3
scalar abilene_cost_network.node[1].face$o[4].channel 	price[1] 	0
scalar abilene_cost_network.node[1].face$o[4].channel 	represented_price[1] 	0
scalar abilene_cost_network.node[7].face$o[4].channel 	price[7] 	0
scalar abilene_cost_network.node[7].face$o[4].channel 	represented_price[7] 	0
scalar abilene_cost_network.node[10].face$o[4].channel 	price[10] 	0
scalar abilene_cost_network.node[10].face$o[4].channel 	represented_price[10] 	0
scalar abilene_cost_network.node[11].face$o[1].channel 	price[11] 	0
scalar abilene_cost_network.node[11].face$o[1].channel 	represented_price[11] 	0
scalar abilene_cost_network.node[12].face$o[1].channel 	price[12] 	1
scalar abilene_cost_network.node[12].face$o[1].channel 	represented_price[12] 	1
scalar abilene_cost_network.node[13].face$o[1].channel 	price[13] 	10
scalar abilene_cost_network.node[13].face$o[1].channel 	represented_price[13] 	10
scalar abilene_cost_network.statistics 	p_hit 	0.11473698642391
scalar abilene_cost_network.statistics 	interests 	146918
scalar abilene_cost_network.statistics 	data 	108322.5
scalar abilene_cost_network.statistics 	hdistance 	3.4060390480441
scalar abilene_cost_network.statistics 	avg_time 	0.014958852215
scalar abilene_cost_network.statistics 	downloads 	532463
scalar abilene_cost_network.statistics 	total_cost 	762603
scalar abilene_cost_network.statistics 	total_replicas 	100000
scalar abilene_cost_network.statistics 	inner_hit 	0.44328526113552
scalar abilene_cost_network.statistics 	interests_sent 	540340
scalar abilene_cost_network.node[0].core_layer 	interests[0] 	195958
scalar abilene_cost_network.node[0].core_layer 	data[0] 	166348
scalar abilene_cost_network.node[0].core_layer 	repo_int[0] 	296430
scalar abilene_cost_network.node[0].content_store 	p_hit[0] 	0.13997387195215
scalar abilene_cost_network.node[0].content_store 	hits[0] 	27429
scalar abilene_cost_network.node[0].content_store 	misses[0] 	168529
scalar abilene_cost_network.node[0].content_store 	decision_yes[0] 	309
scalar abilene_cost_network.node[0].content_store 	decision_no[0] 	166039
scalar abilene_cost_network.node[0].content_store 	decision_ratio[0] 	0.0018575516387333
scalar abilene_cost_network.node[0].content_store 	correction_factor[0] 	0.001
scalar abilene_cost_network.node[0].content_store 	xi[0] 	1
scalar abilene_cost_network.node[1].core_layer 	interests[1] 	256415
scalar abilene_cost_network.node[1].core_layer 	data[1] 	184581
scalar abilene_cost_network.node[1].content_store 	p_hit[1] 	0.28014741727278
scalar abilene_cost_network.node[1].content_store 	hits[1] 	71834
scalar abilene_cost_network.node[1].content_store 	misses[1] 	184581
scalar abilene_cost_network.node[1].content_store 	decision_yes[1] 	734
scalar abilene_cost_network.node[1].content_store 	decision_no[1] 	183847
scalar abilene_cost_network.node[1].content_store 	decision_ratio[1] 	0.0039765739702353
scalar abilene_cost_network.node[1].content_store 	correction_factor[1] 	0.001
scalar abilene_cost_network.node[1].content_store 	xi[1] 	1
scalar abilene_cost_network.node[2].core_layer 	interests[2] 	190198
scalar abilene_cost_network.node[2].core_layer 	data[2] 	150511
scalar abilene_cost_network.node[2].content_store 	p_hit[2] 	0.20849851207689
scalar abilene_cost_network.node[2].content_store 	hits[2] 	39656
scalar abilene_cost_network.node[2].content_store 	misses[2] 	150542
scalar abilene_cost_network.node[2].content_store 	decision_yes[2] 	252
scalar abilene_cost_network.node[2].content_store 	decision_no[2] 	150259
scalar abilene_cost_network.node[2].content_store 	decision_ratio[2] 	0.0016742962308403
scalar abilene_cost_network.node[2].content_store 	correction_factor[2] 	0.001
scalar abilene_cost_network.node[2].content_store 	xi[2] 	1
scalar abilene_cost_network.node[3].core_layer 	interests[3] 	169983
scalar abilene_cost_network.node[3].core_layer 	data[3] 	146648
scalar abilene_cost_network.node[3].content_store 	p_hit[3] 	0.1372901996082
scalar abilene_cost_network.node[3].content_store 	hits[3] 	23337
scalar abilene_cost_network.node[3].content_store 	misses[3] 	146646
scalar abilene_cost_network.node[3].content_store 	decision_yes[3] 	263
scalar abilene_cost_network.node[3].content_store 	decision_no[3] 	146385
scalar abilene_cost_network.node[3].content_store 	decision_ratio[3] 	0.0017934100703726
scalar abilene_cost_network.node[3].content_store 	correction_factor[3] 	0.001
scalar abilene_cost_network.node[3].content_store 	xi[3] 	1
scalar abilene_cost_network.node[4].core_layer 	interests[4] 	130049
scalar abilene_cost_network.node[4].core_layer 	data[4] 	121915
scalar abilene_cost_network.node[4].content_store 	p_hit[4] 	0.062553345277549
scalar abilene_cost_network.node[4].content_store 	hits[4] 	8135
scalar abilene_cost_network.node[4].content_store 	misses[4] 	121914
scalar abilene_cost_network.node[4].content_store 	decision_yes[4] 	233
scalar abilene_cost_network.node[4].content_store 	decision_no[4] 	121682
scalar abilene_cost_network.node[4].content_store 	decision_ratio[4] 	0.0019111676167822
scalar abilene_cost_network.node[4].content_store 	correction_factor[4] 	0.001
scalar abilene_cost_network.node[4].content_store 	xi[4] 	1
scalar abilene_cost_network.node[5].core_layer 	interests[5] 	184992
scalar abilene_cost_network.node[5].core_layer 	data[5] 	166305
scalar abilene_cost_network.node[5].content_store 	p_hit[5] 	0.084414461165888
scalar abilene_cost_network.node[5].content_store 	hits[5] 	15616
scalar abilene_cost_network.node[5].content_store 	misses[5] 	169376
scalar abilene_cost_network.node[5].content_store 	decision_yes[5] 	245
scalar abilene_cost_network.node[5].content_store 	decision_no[5] 	166060
scalar abilene_cost_network.node[5].content_store 	decision_ratio[5] 	0.0014731968371366
scalar abilene_cost_network.node[5].content_store 	correction_factor[5] 	0.001
scalar abilene_cost_network.node[5].content_store 	xi[5] 	1
scalar abilene_cost_network.node[6].core_layer 	interests[6] 	47629
scalar abilene_cost_network.node[6].core_layer 	data[6] 	38816
scalar abilene_cost_network.node[6].content_store 	p_hit[6] 	0.18501333221357
scalar abilene_cost_network.node[6].content_store 	hits[6] 	8812
scalar abilene_cost_network.node[6].content_store 	misses[6] 	38817
scalar abilene_cost_network.node[6].content_store 	decision_yes[6] 	33
scalar abilene_cost_network.node[6].content_store 	decision_no[6] 	38783
scalar abilene_cost_network.node[6].content_store 	decision_ratio[6] 	0.00085016488046167
scalar abilene_cost_network.node[6].content_store 	correction_factor[6] 	0.001
scalar abilene_cost_network.node[6].content_store 	xi[6] 	1
scalar abilene_cost_network.node[7].core_layer 	interests[7] 	102098
scalar abilene_cost_network.node[7].core_layer 	data[7] 	87787
scalar abilene_cost_network.node[7].content_store 	p_hit[7] 	0.14013986561931
scalar abilene_cost_network.node[7].content_store 	hits[7] 	14308
scalar abilene_cost_network.node[7].content_store 	misses[7] 	87790
scalar abilene_cost_network.node[7].content_store 	decision_yes[7] 	76
scalar abilene_cost_network.node[7].content_store 	decision_no[7] 	87711
scalar abilene_cost_network.node[7].content_store 	decision_ratio[7] 	0.00086573182817501
scalar abilene_cost_network.node[7].content_store 	correction_factor[7] 	0.001
scalar abilene_cost_network.node[7].content_store 	xi[7] 	1
scalar abilene_cost_network.node[8].core_layer 	interests[8] 	65013
scalar abilene_cost_network.node[8].core_layer 	data[8] 	61239
scalar abilene_cost_network.node[8].content_store 	p_hit[8] 	0.058049928475843
scalar abilene_cost_network.node[8].content_store 	hits[8] 	3774
scalar abilene_cost_network.node[8].content_store 	misses[8] 	61239
scalar abilene_cost_network.node[8].content_store 	decision_yes[8] 	18
scalar abilene_cost_network.node[8].content_store 	decision_no[8] 	61221
scalar abilene_cost_network.node[8].content_store 	decision_ratio[8] 	0.00029393033850977
scalar abilene_cost_network.node[8].content_store 	correction_factor[8] 	0.001
scalar abilene_cost_network.node[8].content_store 	xi[8] 	1
scalar abilene_cost_network.node[9].core_layer 	interests[9] 	189749
scalar abilene_cost_network.node[9].core_layer 	data[9] 	172731
scalar abilene_cost_network.node[9].content_store 	p_hit[9] 	0.075852837169102
scalar abilene_cost_network.node[9].content_store 	hits[9] 	14393
scalar abilene_cost_network.node[9].content_store 	misses[9] 	175356
scalar abilene_cost_network.node[9].content_store 	decision_yes[9] 	265
scalar abilene_cost_network.node[9].content_store 	decision_no[9] 	172466
scalar abilene_cost_network.node[9].content_store 	decision_ratio[9] 	0.001534177420382
scalar abilene_cost_network.node[9].content_store 	correction_factor[9] 	0.001
scalar abilene_cost_network.node[9].content_store 	xi[9] 	1
scalar abilene_cost_network.node[10].core_layer 	interests[10] 	228338
scalar abilene_cost_network.node[10].core_layer 	data[10] 	219634
scalar abilene_cost_network.node[10].content_store 	p_hit[10] 	0.03811454948366
scalar abilene_cost_network.node[10].content_store 	hits[10] 	8703
scalar abilene_cost_network.node[10].content_store 	misses[10] 	219635
scalar abilene_cost_network.node[10].content_store 	decision_yes[10] 	211
scalar abilene_cost_network.node[10].content_store 	decision_no[10] 	219423
scalar abilene_cost_network.node[10].content_store 	decision_ratio[10] 	0.00096068914648916
scalar abilene_cost_network.node[10].content_store 	correction_factor[10] 	0.001
scalar abilene_cost_network.node[10].content_store 	xi[10] 	1
scalar abilene_cost_network.node[11].core_layer 	interests[11] 	154170
scalar abilene_cost_network.node[11].core_layer 	repo_load[11] 	154170
scalar abilene_cost_network.node[11].core_layer 	data[11] 	0
scalar abilene_cost_network.node[11].content_store 	p_hit[11] 	0
scalar abilene_cost_network.node[11].content_store 	hits[11] 	0
scalar abilene_cost_network.node[11].content_store 	misses[11] 	154170
scalar abilene_cost_network.node[11].content_store 	decision_yes[11] 	0
scalar abilene_cost_network.node[11].content_store 	decision_no[11] 	154170
scalar abilene_cost_network.node[11].content_store 	decision_ratio[11] 	0
scalar abilene_cost_network.node[12].core_layer 	interests[12] 	73333
scalar abilene_cost_network.node[12].core_layer 	repo_load[12] 	73333
scalar abilene_cost_network.node[12].core_layer 	data[12] 	0
scalar abilene_cost_network.node[12].content_store 	p_hit[12] 	0
scalar abilene_cost_network.node[12].content_store 	hits[12] 	0
scalar abilene_cost_network.node[12].content_store 	misses[12] 	73333
scalar abilene_cost_network.node[12].content_store 	decision_yes[12] 	0
scalar abilene_cost_network.node[12].content_store 	decision_no[12] 	73333
scalar abilene_cost_network.node[12].content_store 	decision_ratio[12] 	0
scalar abilene_cost_network.node[13].core_layer 	interests[13] 	68927
scalar abilene_cost_network.node[13].core_layer 	repo_load[13] 	68927
scalar abilene_cost_network.node[13].core_layer 	data[13] 	0
scalar abilene_cost_network.node[13].content_store 	p_hit[13] 	0
scalar abilene_cost_network.node[13].content_store 	hits[13] 	0
scalar abilene_cost_network.node[13].content_store 	misses[13] 	68927
scalar abilene_cost_network.node[13].content_store 	decision_yes[13] 	0
scalar abilene_cost_network.node[13].content_store 	decision_no[13] 	68927
scalar abilene_cost_network.node[13].content_store 	decision_ratio[13] 	0
scalar abilene_cost_network.client[0] 	hdistance[0] 	2.8541936136949
scalar abilene_cost_network.client[0] 	downloads[0] 	177818
scalar abilene_cost_network.client[0] 	avg_time[0] 	0.013232264887
scalar abilene_cost_network.client[0] 	interests_sent[0] 	179999
scalar abilene_cost_network.client[5] 	hdistance[5] 	4.5223883967638
scalar abilene_cost_network.client[5] 	downloads[5] 	177123
scalar abilene_cost_network.client[5] 	avg_time[5] 	0.018695229723
scalar abilene_cost_network.client[5] 	interests_sent[5] 	180194
scalar abilene_cost_network.client[9] 	hdistance[9] 	2.8415351336735
scalar abilene_cost_network.client[9] 	downloads[9] 	177522
scalar abilene_cost_network.client[9] 	avg_time[9] 	0.012949062037
scalar abilene_cost_network.client[9] 	interests_sent[9] 	180147
