version 2
run General-339-20140502-10:30:19-13499
attr D fix0.5
attr F nrr
attr R lru
attr a 1
attr configname General
attr csize 1e3
attr ctlg 1e5
attr datetime 20140502-10:30:19
attr experiment General
attr inifile omnetpp.ini
attr iterationvars "$net=three_caches_scenario_3_links, $rep=3, $priceratiovalue=2, $weights=0.333_0.333_0.334, $a=1, $ctlg=1e5, $F=nrr, $ttl=1000, $D=fix0.5, $xi=1, $R=lru, $csize=1e3"
attr iterationvars2 "$net=three_caches_scenario_3_links, $rep=3, $priceratiovalue=2, $weights=0.333_0.333_0.334, $a=1, $ctlg=1e5, $F=nrr, $ttl=1000, $D=fix0.5, $xi=1, $R=lru, $csize=1e3, $repetition=0"
attr measurement "$net=three_caches_scenario_3_links, $rep=3, $priceratiovalue=2, $weights=0.333_0.333_0.334, $a=1, $ctlg=1e5, $F=nrr, $ttl=1000, $D=fix0.5, $xi=1, $R=lru, $csize=1e3"
attr net three_caches_scenario_3_links
attr network networks.${net=three_caches_scenario_3_links}_network
attr priceratiovalue 2
attr processid 13499
attr rep 3
attr repetition 0
attr replication #0
attr resultdir results
attr runnumber 339
attr seedset 3
attr ttl 1000
attr weights 0.333_0.333_0.334
attr xi 1

scalar . 	a 	1
scalar . 	csize 	1e3
scalar . 	ctlg 	1e5
scalar . 	priceratiovalue 	2
scalar . 	rep 	3
scalar . 	ttl 	1000
scalar . 	xi 	1
scalar three_caches_scenario_3_links_network.content_distribution 	repo-0 	4
scalar three_caches_scenario_3_links_network.content_distribution 	repo-1 	5
scalar three_caches_scenario_3_links_network.content_distribution 	repo-2 	6
scalar three_caches_scenario_3_links_network.content_distribution 	client-0 	0
scalar three_caches_scenario_3_links_network.content_distribution 	repo-0_card 	33329
scalar three_caches_scenario_3_links_network.content_distribution 	repo-1_card 	33051
scalar three_caches_scenario_3_links_network.content_distribution 	repo-2_card 	33620
scalar three_caches_scenario_3_links_network.statistics 	p_hit 	0.23391161785924
scalar three_caches_scenario_3_links_network.statistics 	interests 	53763.285714286
scalar three_caches_scenario_3_links_network.statistics 	data 	28076
scalar three_caches_scenario_3_links_network.statistics 	hdistance 	1.4127166858535
scalar three_caches_scenario_3_links_network.statistics 	avg_time 	0
scalar three_caches_scenario_3_links_network.statistics 	downloads 	179811
scalar three_caches_scenario_3_links_network.statistics 	total_cost 	86331
scalar three_caches_scenario_3_links_network.statistics 	total_replicas 	100000
scalar three_caches_scenario_3_links_network.statistics 	interests_sent 	179811
scalar three_caches_scenario_3_links_network.node[0].core_layer 	interests[0] 	179811
scalar three_caches_scenario_3_links_network.node[0].core_layer 	data[0] 	104752
scalar three_caches_scenario_3_links_network.node[0].core_layer 	repo_int[0] 	91780
scalar three_caches_scenario_3_links_network.node[0].content_store 	p_hit[0] 	0.41743274883072
scalar three_caches_scenario_3_links_network.node[0].content_store 	hits[0] 	75059
scalar three_caches_scenario_3_links_network.node[0].content_store 	misses[0] 	104752
scalar three_caches_scenario_3_links_network.node[0].content_store 	decision_yes[0] 	52268
scalar three_caches_scenario_3_links_network.node[0].content_store 	decision_no[0] 	52484
scalar three_caches_scenario_3_links_network.node[1].core_layer 	interests[1] 	34290
scalar three_caches_scenario_3_links_network.node[1].core_layer 	data[1] 	34290
scalar three_caches_scenario_3_links_network.node[1].content_store 	p_hit[1] 	0
scalar three_caches_scenario_3_links_network.node[1].content_store 	hits[1] 	0
scalar three_caches_scenario_3_links_network.node[1].content_store 	misses[1] 	34290
scalar three_caches_scenario_3_links_network.node[1].content_store 	decision_yes[1] 	0
scalar three_caches_scenario_3_links_network.node[1].content_store 	decision_no[1] 	34290
scalar three_caches_scenario_3_links_network.node[2].core_layer 	interests[2] 	35715
scalar three_caches_scenario_3_links_network.node[2].core_layer 	data[2] 	28649
scalar three_caches_scenario_3_links_network.node[2].content_store 	p_hit[2] 	0.19784404311914
scalar three_caches_scenario_3_links_network.node[2].content_store 	hits[2] 	7066
scalar three_caches_scenario_3_links_network.node[2].content_store 	misses[2] 	28649
scalar three_caches_scenario_3_links_network.node[2].content_store 	decision_yes[2] 	14414
scalar three_caches_scenario_3_links_network.node[2].content_store 	decision_no[2] 	14235
scalar three_caches_scenario_3_links_network.node[3].core_layer 	interests[3] 	34747
scalar three_caches_scenario_3_links_network.node[3].core_layer 	data[3] 	28841
scalar three_caches_scenario_3_links_network.node[3].content_store 	p_hit[3] 	0.16997150833165
scalar three_caches_scenario_3_links_network.node[3].content_store 	hits[3] 	5906
scalar three_caches_scenario_3_links_network.node[3].content_store 	misses[3] 	28841
scalar three_caches_scenario_3_links_network.node[3].content_store 	decision_yes[3] 	14429
scalar three_caches_scenario_3_links_network.node[3].content_store 	decision_no[3] 	14412
scalar three_caches_scenario_3_links_network.node[4].core_layer 	interests[4] 	34290
scalar three_caches_scenario_3_links_network.node[4].core_layer 	repo_load[4] 	34290
scalar three_caches_scenario_3_links_network.node[4].core_layer 	data[4] 	0
scalar three_caches_scenario_3_links_network.node[4].content_store 	p_hit[4] 	0
scalar three_caches_scenario_3_links_network.node[4].content_store 	hits[4] 	0
scalar three_caches_scenario_3_links_network.node[4].content_store 	misses[4] 	34290
scalar three_caches_scenario_3_links_network.node[4].content_store 	decision_yes[4] 	0
scalar three_caches_scenario_3_links_network.node[4].content_store 	decision_no[4] 	34290
scalar three_caches_scenario_3_links_network.node[5].core_layer 	interests[5] 	28649
scalar three_caches_scenario_3_links_network.node[5].core_layer 	repo_load[5] 	28649
scalar three_caches_scenario_3_links_network.node[5].core_layer 	data[5] 	0
scalar three_caches_scenario_3_links_network.node[5].content_store 	p_hit[5] 	0
scalar three_caches_scenario_3_links_network.node[5].content_store 	hits[5] 	0
scalar three_caches_scenario_3_links_network.node[5].content_store 	misses[5] 	28649
scalar three_caches_scenario_3_links_network.node[5].content_store 	decision_yes[5] 	0
scalar three_caches_scenario_3_links_network.node[5].content_store 	decision_no[5] 	28649
scalar three_caches_scenario_3_links_network.node[6].core_layer 	interests[6] 	28841
scalar three_caches_scenario_3_links_network.node[6].core_layer 	repo_load[6] 	28841
scalar three_caches_scenario_3_links_network.node[6].core_layer 	data[6] 	0
scalar three_caches_scenario_3_links_network.node[6].content_store 	p_hit[6] 	0
scalar three_caches_scenario_3_links_network.node[6].content_store 	hits[6] 	0
scalar three_caches_scenario_3_links_network.node[6].content_store 	misses[6] 	28841
scalar three_caches_scenario_3_links_network.node[6].content_store 	decision_yes[6] 	0
scalar three_caches_scenario_3_links_network.node[6].content_store 	decision_no[6] 	28841
scalar three_caches_scenario_3_links_network.client[0] 	hdistance[0] 	1.4127166858535
scalar three_caches_scenario_3_links_network.client[0] 	downloads[0] 	179811
scalar three_caches_scenario_3_links_network.client[0] 	avg_time[0] 	0
scalar three_caches_scenario_3_links_network.client[0] 	interests_sent[0] 	179811
