version 2
run General-1-20150717-20:11:28-11675
attr C 1e4
attr D lce
attr F spr
attr R lru_repr
attr a 1
attr brates 0.3_0.7_1.5_2.5_3.5
attr configname General
attr ctlg 1e6
attr datetime 20150717-20:11:28
attr experiment General
attr inifile omnetpp.ini
attr iterationvars "$net=abilene_nodelay, $rep=0, $lambda=100, $a=1, $ctlg=1e6, $brates=0.3_0.7_1.5_2.5_3.5, $F=spr, $ttl=1000, $D=lce, $R=lru_repr, $C=1e4, $window=60, $variance=0.05, $mytime=1800"
attr iterationvars2 "$net=abilene_nodelay, $rep=0, $lambda=100, $a=1, $ctlg=1e6, $brates=0.3_0.7_1.5_2.5_3.5, $F=spr, $ttl=1000, $D=lce, $R=lru_repr, $C=1e4, $window=60, $variance=0.05, $mytime=1800, $repetition=0"
attr lambda 100
attr measurement "$net=abilene_nodelay, $rep=0, $lambda=100, $a=1, $ctlg=1e6, $brates=0.3_0.7_1.5_2.5_3.5, $F=spr, $ttl=1000, $D=lce, $R=lru_repr, $C=1e4, $window=60, $variance=0.05, $mytime=1800"
attr mytime 1800
attr net abilene_nodelay
attr network networks.${net=abilene_nodelay}_network
attr processid 11675
attr rep 0
attr repetition 0
attr replication #0
attr resultdir results
attr runnumber 1
attr seedset 0
attr ttl 1000
attr variance 0.05
attr window 60

scalar . 	C 	1e4
scalar . 	a 	1
scalar . 	ctlg 	1e6
scalar . 	lambda 	100
scalar . 	mytime 	1800
scalar . 	rep 	0
scalar . 	ttl 	1000
scalar . 	variance 	0.05
scalar . 	window 	60
scalar abilene_nodelay_network.content_distribution 	repo-0 	5
scalar abilene_nodelay_network.content_distribution 	repo-1 	8
scalar abilene_nodelay_network.content_distribution 	repo-2 	9
scalar abilene_nodelay_network.content_distribution 	repo-3 	0
scalar abilene_nodelay_network.content_distribution 	repo-4 	1
scalar abilene_nodelay_network.content_distribution 	repo-5 	7
scalar abilene_nodelay_network.content_distribution 	repo-6 	6
scalar abilene_nodelay_network.content_distribution 	repo-7 	2
scalar abilene_nodelay_network.content_distribution 	repo-8 	4
scalar abilene_nodelay_network.content_distribution 	repo-9 	10
scalar abilene_nodelay_network.content_distribution 	repo-10 	3
scalar abilene_nodelay_network.content_distribution 	client-0 	10
scalar abilene_nodelay_network.content_distribution 	client-1 	9
scalar abilene_nodelay_network.content_distribution 	client-2 	8
scalar abilene_nodelay_network.content_distribution 	client-3 	7
scalar abilene_nodelay_network.content_distribution 	client-4 	3
scalar abilene_nodelay_network.content_distribution 	client-5 	6
scalar abilene_nodelay_network.content_distribution 	client-6 	5
scalar abilene_nodelay_network.content_distribution 	client-7 	1
scalar abilene_nodelay_network.content_distribution 	client-8 	4
scalar abilene_nodelay_network.content_distribution 	client-9 	0
scalar abilene_nodelay_network.content_distribution 	client-10 	2
scalar abilene_nodelay_network.content_distribution 	repo-0_card 	90891
scalar abilene_nodelay_network.content_distribution 	repo-0_price 	0
scalar abilene_nodelay_network.content_distribution 	repo-1_card 	90362
scalar abilene_nodelay_network.content_distribution 	repo-1_price 	0
scalar abilene_nodelay_network.content_distribution 	repo-2_card 	90927
scalar abilene_nodelay_network.content_distribution 	repo-2_price 	0
scalar abilene_nodelay_network.content_distribution 	repo-3_card 	91098
scalar abilene_nodelay_network.content_distribution 	repo-3_price 	0
scalar abilene_nodelay_network.content_distribution 	repo-4_card 	91231
scalar abilene_nodelay_network.content_distribution 	repo-4_price 	0
scalar abilene_nodelay_network.content_distribution 	repo-5_card 	90932
scalar abilene_nodelay_network.content_distribution 	repo-5_price 	0
scalar abilene_nodelay_network.content_distribution 	repo-6_card 	90752
scalar abilene_nodelay_network.content_distribution 	repo-6_price 	0
scalar abilene_nodelay_network.content_distribution 	repo-7_card 	90980
scalar abilene_nodelay_network.content_distribution 	repo-7_price 	0
scalar abilene_nodelay_network.content_distribution 	repo-8_card 	90629
scalar abilene_nodelay_network.content_distribution 	repo-8_price 	0
scalar abilene_nodelay_network.content_distribution 	repo-9_card 	91219
scalar abilene_nodelay_network.content_distribution 	repo-9_price 	0
scalar abilene_nodelay_network.content_distribution 	repo-10_card 	90979
scalar abilene_nodelay_network.content_distribution 	repo-10_price 	0
scalar abilene_nodelay_network.statistics 	p_hit 	0.30058484563404
scalar abilene_nodelay_network.statistics 	interests 	97212.909090909
scalar abilene_nodelay_network.statistics 	data 	45636.636363636
scalar abilene_nodelay_network.statistics 	hdistance 	1.1769119054725
scalar abilene_nodelay_network.statistics 	avg_time 	0
scalar abilene_nodelay_network.statistics 	downloads 	471461
scalar abilene_nodelay_network.statistics 	total_cost 	0
scalar abilene_nodelay_network.statistics 	total_replicas 	1000000
scalar abilene_nodelay_network.statistics 	"representations_downloaded 0.479987:0.0335744:0.0197556:0.013613:0.45307:" 	0
scalar abilene_nodelay_network.statistics 	"slots_per_representation 100:233:500:833:1167:" 	0
scalar abilene_nodelay_network.statistics 	inner_hit 	0.4784107275045
scalar abilene_nodelay_network.statistics 	interests_sent 	471461
scalar abilene_nodelay_network.statistics 	execution_time 	258512
scalar abilene_nodelay_network.node[0].core_layer 	interests[0] 	64172
scalar abilene_nodelay_network.node[0].core_layer 	repo_load[0] 	21023
scalar abilene_nodelay_network.node[0].core_layer 	data[0] 	20569
scalar abilene_nodelay_network.node[0].core_layer 	slots_sent[face$o[1]->client[0]] 	25411062
scalar abilene_nodelay_network.node[0].core_layer 	slots_sent[face$o[2]->node[1]] 	3229128
scalar abilene_nodelay_network.node[0].core_layer 	slots_sent[face$o[3]->node[10]] 	853341
scalar abilene_nodelay_network.node[0].content_store 	p_hit[0] 	0.35186685781961
scalar abilene_nodelay_network.node[0].content_store 	hits[0] 	22580
scalar abilene_nodelay_network.node[0].content_store 	misses[0] 	41592
scalar abilene_nodelay_network.node[0].content_store 	decision_yes[0] 	20569
scalar abilene_nodelay_network.node[0].content_store 	decision_no[0] 	21023
scalar abilene_nodelay_network.node[0].content_store 	decision_ratio[0] 	0.49454221965763
scalar abilene_nodelay_network.node[0].content_store 	"representation_breakdown[0] 13450:1269:457:254:1278:" 	0
scalar abilene_nodelay_network.node[0].proactive_component 	hdistance[0].proactive_component 	1.8347578347578
scalar abilene_nodelay_network.node[0].proactive_component 	downloads[0].proactive_component 	3861
scalar abilene_nodelay_network.node[0].proactive_component 	avg_time[0].proactive_component 	0
scalar abilene_nodelay_network.node[0].proactive_component 	interests_sent[0].proactive_component 	3861
scalar abilene_nodelay_network.node[1].core_layer 	interests[1] 	113826
scalar abilene_nodelay_network.node[1].core_layer 	repo_load[1] 	22864
scalar abilene_nodelay_network.node[1].core_layer 	data[1] 	59241
scalar abilene_nodelay_network.node[1].core_layer 	slots_sent[face$o[1]->client[1]] 	26012348
scalar abilene_nodelay_network.node[1].core_layer 	slots_sent[face$o[2]->node[0]] 	3691173
scalar abilene_nodelay_network.node[1].core_layer 	slots_sent[face$o[3]->node[10]] 	2801497
scalar abilene_nodelay_network.node[1].core_layer 	slots_sent[face$o[4]->node[2]] 	7258109
scalar abilene_nodelay_network.node[1].content_store 	p_hit[1] 	0.27867095391211
scalar abilene_nodelay_network.node[1].content_store 	hits[1] 	31720
scalar abilene_nodelay_network.node[1].content_store 	misses[1] 	82106
scalar abilene_nodelay_network.node[1].content_store 	decision_yes[1] 	59241
scalar abilene_nodelay_network.node[1].content_store 	decision_no[1] 	22864
scalar abilene_nodelay_network.node[1].content_store 	decision_ratio[1] 	0.72152731258754
scalar abilene_nodelay_network.node[1].content_store 	"representation_breakdown[1] 33994:4252:1364:755:2678:" 	0
scalar abilene_nodelay_network.node[1].proactive_component 	hdistance[1].proactive_component 	2.0643859311935
scalar abilene_nodelay_network.node[1].proactive_component 	downloads[1].proactive_component 	10406
scalar abilene_nodelay_network.node[1].proactive_component 	avg_time[1].proactive_component 	0
scalar abilene_nodelay_network.node[1].proactive_component 	interests_sent[1].proactive_component 	10407
scalar abilene_nodelay_network.node[2].core_layer 	interests[2] 	149929
scalar abilene_nodelay_network.node[2].core_layer 	repo_load[2] 	24384
scalar abilene_nodelay_network.node[2].core_layer 	data[2] 	86031
scalar abilene_nodelay_network.node[2].core_layer 	slots_sent[face$o[1]->client[2]] 	26347351
scalar abilene_nodelay_network.node[2].core_layer 	slots_sent[face$o[2]->node[1]] 	7591117
scalar abilene_nodelay_network.node[2].core_layer 	slots_sent[face$o[3]->node[3]] 	9110915
scalar abilene_nodelay_network.node[2].core_layer 	slots_sent[face$o[4]->node[8]] 	3747897
scalar abilene_nodelay_network.node[2].content_store 	p_hit[2] 	0.2635447445124
scalar abilene_nodelay_network.node[2].content_store 	hits[2] 	39513
scalar abilene_nodelay_network.node[2].content_store 	misses[2] 	110416
scalar abilene_nodelay_network.node[2].content_store 	decision_yes[2] 	86031
scalar abilene_nodelay_network.node[2].content_store 	decision_no[2] 	24384
scalar abilene_nodelay_network.node[2].content_store 	decision_ratio[2] 	0.77916044015759
scalar abilene_nodelay_network.node[2].content_store 	"representation_breakdown[2] 43354:6239:2127:1111:3335:" 	0
scalar abilene_nodelay_network.node[2].proactive_component 	hdistance[2].proactive_component 	2.1418018018018
scalar abilene_nodelay_network.node[2].proactive_component 	downloads[2].proactive_component 	16650
scalar abilene_nodelay_network.node[2].proactive_component 	avg_time[2].proactive_component 	0
scalar abilene_nodelay_network.node[2].proactive_component 	interests_sent[2].proactive_component 	16651
scalar abilene_nodelay_network.node[3].core_layer 	interests[3] 	142256
scalar abilene_nodelay_network.node[3].core_layer 	repo_load[3] 	22554
scalar abilene_nodelay_network.node[3].core_layer 	data[3] 	79540
scalar abilene_nodelay_network.node[3].core_layer 	slots_sent[face$o[1]->client[3]] 	28142360
scalar abilene_nodelay_network.node[3].core_layer 	slots_sent[face$o[2]->node[2]] 	9082502
scalar abilene_nodelay_network.node[3].core_layer 	slots_sent[face$o[3]->node[4]] 	5883153
scalar abilene_nodelay_network.node[3].core_layer 	slots_sent[face$o[4]->node[7]] 	4128107
scalar abilene_nodelay_network.node[3].content_store 	p_hit[3] 	0.28232201102238
scalar abilene_nodelay_network.node[3].content_store 	hits[3] 	40162
scalar abilene_nodelay_network.node[3].content_store 	misses[3] 	102094
scalar abilene_nodelay_network.node[3].content_store 	decision_yes[3] 	79540
scalar abilene_nodelay_network.node[3].content_store 	decision_no[3] 	22554
scalar abilene_nodelay_network.node[3].content_store 	decision_ratio[3] 	0.77908594040786
scalar abilene_nodelay_network.node[3].content_store 	"representation_breakdown[3] 43985:5818:1965:990:3446:" 	0
scalar abilene_nodelay_network.node[3].proactive_component 	hdistance[3].proactive_component 	2.1240086978767
scalar abilene_nodelay_network.node[3].proactive_component 	downloads[3].proactive_component 	15636
scalar abilene_nodelay_network.node[3].proactive_component 	avg_time[3].proactive_component 	0
scalar abilene_nodelay_network.node[3].proactive_component 	interests_sent[3].proactive_component 	15636
scalar abilene_nodelay_network.node[4].core_layer 	interests[4] 	86292
scalar abilene_nodelay_network.node[4].core_layer 	repo_load[4] 	20934
scalar abilene_nodelay_network.node[4].core_layer 	data[4] 	38599
scalar abilene_nodelay_network.node[4].core_layer 	slots_sent[face$o[1]->client[4]] 	26317830
scalar abilene_nodelay_network.node[4].core_layer 	slots_sent[face$o[2]->node[3]] 	5209293
scalar abilene_nodelay_network.node[4].core_layer 	slots_sent[face$o[3]->node[5]] 	3197637
scalar abilene_nodelay_network.node[4].content_store 	p_hit[4] 	0.31009827098688
scalar abilene_nodelay_network.node[4].content_store 	hits[4] 	26759
scalar abilene_nodelay_network.node[4].content_store 	misses[4] 	59533
scalar abilene_nodelay_network.node[4].content_store 	decision_yes[4] 	38599
scalar abilene_nodelay_network.node[4].content_store 	decision_no[4] 	20934
scalar abilene_nodelay_network.node[4].content_store 	decision_ratio[4] 	0.64836309273848
scalar abilene_nodelay_network.node[4].content_store 	"representation_breakdown[4] 23333:2511:872:506:2084:" 	0
scalar abilene_nodelay_network.node[4].proactive_component 	hdistance[4].proactive_component 	1.9302613267357
scalar abilene_nodelay_network.node[4].proactive_component 	downloads[4].proactive_component 	6467
scalar abilene_nodelay_network.node[4].proactive_component 	avg_time[4].proactive_component 	0
scalar abilene_nodelay_network.node[4].proactive_component 	interests_sent[4].proactive_component 	6467
scalar abilene_nodelay_network.node[5].core_layer 	interests[5] 	70329
scalar abilene_nodelay_network.node[5].core_layer 	repo_load[5] 	24205
scalar abilene_nodelay_network.node[5].core_layer 	data[5] 	24997
scalar abilene_nodelay_network.node[5].core_layer 	slots_sent[face$o[1]->client[5]] 	22545403
scalar abilene_nodelay_network.node[5].core_layer 	slots_sent[face$o[2]->node[4]] 	2901093
scalar abilene_nodelay_network.node[5].core_layer 	slots_sent[face$o[3]->node[6]] 	2071711
scalar abilene_nodelay_network.node[5].content_store 	p_hit[5] 	0.30040239446032
scalar abilene_nodelay_network.node[5].content_store 	hits[5] 	21127
scalar abilene_nodelay_network.node[5].content_store 	misses[5] 	49202
scalar abilene_nodelay_network.node[5].content_store 	decision_yes[5] 	24997
scalar abilene_nodelay_network.node[5].content_store 	decision_no[5] 	24205
scalar abilene_nodelay_network.node[5].content_store 	decision_ratio[5] 	0.50804845331491
scalar abilene_nodelay_network.node[5].content_store 	"representation_breakdown[5] 16034:1519:544:322:1315:" 	0
scalar abilene_nodelay_network.node[5].proactive_component 	hdistance[5].proactive_component 	1.9837266069976
scalar abilene_nodelay_network.node[5].proactive_component 	downloads[5].proactive_component 	4916
scalar abilene_nodelay_network.node[5].proactive_component 	avg_time[5].proactive_component 	0
scalar abilene_nodelay_network.node[5].proactive_component 	interests_sent[5].proactive_component 	4916
scalar abilene_nodelay_network.node[6].core_layer 	interests[6] 	78560
scalar abilene_nodelay_network.node[6].core_layer 	repo_load[6] 	21018
scalar abilene_nodelay_network.node[6].core_layer 	data[6] 	31827
scalar abilene_nodelay_network.node[6].core_layer 	slots_sent[face$o[1]->client[6]] 	26034023
scalar abilene_nodelay_network.node[6].core_layer 	slots_sent[face$o[2]->node[5]] 	2259752
scalar abilene_nodelay_network.node[6].core_layer 	slots_sent[face$o[3]->node[7]] 	4481628
scalar abilene_nodelay_network.node[6].content_store 	p_hit[6] 	0.32732942973523
scalar abilene_nodelay_network.node[6].content_store 	hits[6] 	25715
scalar abilene_nodelay_network.node[6].content_store 	misses[6] 	52845
scalar abilene_nodelay_network.node[6].content_store 	decision_yes[6] 	31827
scalar abilene_nodelay_network.node[6].content_store 	decision_no[6] 	21018
scalar abilene_nodelay_network.node[6].content_store 	decision_ratio[6] 	0.60227079193869
scalar abilene_nodelay_network.node[6].content_store 	"representation_breakdown[6] 19544:2101:727:362:1591:" 	0
scalar abilene_nodelay_network.node[6].proactive_component 	hdistance[6].proactive_component 	1.9628503883823
scalar abilene_nodelay_network.node[6].proactive_component 	downloads[6].proactive_component 	5922
scalar abilene_nodelay_network.node[6].proactive_component 	avg_time[6].proactive_component 	0
scalar abilene_nodelay_network.node[6].proactive_component 	interests_sent[6].proactive_component 	5922
scalar abilene_nodelay_network.node[7].core_layer 	interests[7] 	107445
scalar abilene_nodelay_network.node[7].core_layer 	repo_load[7] 	22390
scalar abilene_nodelay_network.node[7].core_layer 	data[7] 	52142
scalar abilene_nodelay_network.node[7].core_layer 	slots_sent[face$o[1]->client[7]] 	27551786
scalar abilene_nodelay_network.node[7].core_layer 	slots_sent[face$o[2]->node[3]] 	3793122
scalar abilene_nodelay_network.node[7].core_layer 	slots_sent[face$o[3]->node[6]] 	4948237
scalar abilene_nodelay_network.node[7].core_layer 	slots_sent[face$o[4]->node[8]] 	3455334
scalar abilene_nodelay_network.node[7].content_store 	p_hit[7] 	0.3063241658523
scalar abilene_nodelay_network.node[7].content_store 	hits[7] 	32913
scalar abilene_nodelay_network.node[7].content_store 	misses[7] 	74532
scalar abilene_nodelay_network.node[7].content_store 	decision_yes[7] 	52142
scalar abilene_nodelay_network.node[7].content_store 	decision_no[7] 	22390
scalar abilene_nodelay_network.node[7].content_store 	decision_ratio[7] 	0.69959212150486
scalar abilene_nodelay_network.node[7].content_store 	"representation_breakdown[7] 30039:3662:1234:659:2597:" 	0
scalar abilene_nodelay_network.node[7].proactive_component 	hdistance[7].proactive_component 	1.9509869362067
scalar abilene_nodelay_network.node[7].proactive_component 	downloads[7].proactive_component 	10487
scalar abilene_nodelay_network.node[7].proactive_component 	avg_time[7].proactive_component 	0
scalar abilene_nodelay_network.node[7].proactive_component 	interests_sent[7].proactive_component 	10487
scalar abilene_nodelay_network.node[8].core_layer 	interests[8] 	102171
scalar abilene_nodelay_network.node[8].core_layer 	repo_load[8] 	21371
scalar abilene_nodelay_network.node[8].core_layer 	data[8] 	48677
scalar abilene_nodelay_network.node[8].core_layer 	slots_sent[face$o[1]->client[8]] 	28007613
scalar abilene_nodelay_network.node[8].core_layer 	slots_sent[face$o[2]->node[2]] 	3222169
scalar abilene_nodelay_network.node[8].core_layer 	slots_sent[face$o[3]->node[7]] 	3326320
scalar abilene_nodelay_network.node[8].core_layer 	slots_sent[face$o[4]->node[9]] 	4445020
scalar abilene_nodelay_network.node[8].content_store 	p_hit[8] 	0.31440428301573
scalar abilene_nodelay_network.node[8].content_store 	hits[8] 	32123
scalar abilene_nodelay_network.node[8].content_store 	misses[8] 	70048
scalar abilene_nodelay_network.node[8].content_store 	decision_yes[8] 	48677
scalar abilene_nodelay_network.node[8].content_store 	decision_no[8] 	21371
scalar abilene_nodelay_network.node[8].content_store 	decision_ratio[8] 	0.69490920511649
scalar abilene_nodelay_network.node[8].content_store 	"representation_breakdown[8] 28250:3389:1151:649:2559:" 	0
scalar abilene_nodelay_network.node[8].proactive_component 	hdistance[8].proactive_component 	1.9148693488179
scalar abilene_nodelay_network.node[8].proactive_component 	downloads[8].proactive_component 	9644
scalar abilene_nodelay_network.node[8].proactive_component 	avg_time[8].proactive_component 	0
scalar abilene_nodelay_network.node[8].proactive_component 	interests_sent[8].proactive_component 	9644
scalar abilene_nodelay_network.node[9].core_layer 	interests[9] 	78274
scalar abilene_nodelay_network.node[9].core_layer 	repo_load[9] 	21677
scalar abilene_nodelay_network.node[9].core_layer 	data[9] 	31821
scalar abilene_nodelay_network.node[9].core_layer 	slots_sent[face$o[1]->client[9]] 	24960752
scalar abilene_nodelay_network.node[9].core_layer 	slots_sent[face$o[2]->node[10]] 	2684395
scalar abilene_nodelay_network.node[9].core_layer 	slots_sent[face$o[3]->node[8]] 	4058823
scalar abilene_nodelay_network.node[9].content_store 	p_hit[9] 	0.31652911567059
scalar abilene_nodelay_network.node[9].content_store 	hits[9] 	24776
scalar abilene_nodelay_network.node[9].content_store 	misses[9] 	53498
scalar abilene_nodelay_network.node[9].content_store 	decision_yes[9] 	31821
scalar abilene_nodelay_network.node[9].content_store 	decision_no[9] 	21677
scalar abilene_nodelay_network.node[9].content_store 	decision_ratio[9] 	0.59480728251523
scalar abilene_nodelay_network.node[9].content_store 	"representation_breakdown[9] 19704:2054:728:392:1536:" 	0
scalar abilene_nodelay_network.node[9].proactive_component 	hdistance[9].proactive_component 	1.9433260023685
scalar abilene_nodelay_network.node[9].proactive_component 	downloads[9].proactive_component 	5911
scalar abilene_nodelay_network.node[9].proactive_component 	avg_time[9].proactive_component 	0
scalar abilene_nodelay_network.node[9].proactive_component 	interests_sent[9].proactive_component 	5911
scalar abilene_nodelay_network.node[10].core_layer 	interests[10] 	76088
scalar abilene_nodelay_network.node[10].core_layer 	repo_load[10] 	23489
scalar abilene_nodelay_network.node[10].core_layer 	data[10] 	28559
scalar abilene_nodelay_network.node[10].core_layer 	slots_sent[face$o[1]->client[10]] 	24267358
scalar abilene_nodelay_network.node[10].core_layer 	slots_sent[face$o[2]->node[0]] 	912960
scalar abilene_nodelay_network.node[10].core_layer 	slots_sent[face$o[3]->node[1]] 	2511700
scalar abilene_nodelay_network.node[10].core_layer 	slots_sent[face$o[4]->node[9]] 	2502266
scalar abilene_nodelay_network.node[10].content_store 	p_hit[10] 	0.31594995268636
scalar abilene_nodelay_network.node[10].content_store 	hits[10] 	24040
scalar abilene_nodelay_network.node[10].content_store 	misses[10] 	52048
scalar abilene_nodelay_network.node[10].content_store 	decision_yes[10] 	28559
scalar abilene_nodelay_network.node[10].content_store 	decision_no[10] 	23489
scalar abilene_nodelay_network.node[10].content_store 	decision_ratio[10] 	0.54870504150015
scalar abilene_nodelay_network.node[10].content_store 	"representation_breakdown[10] 17684:1847:646:366:1470:" 	0
scalar abilene_nodelay_network.node[10].proactive_component 	hdistance[10].proactive_component 	1.9261924686192
scalar abilene_nodelay_network.node[10].proactive_component 	downloads[10].proactive_component 	5975
scalar abilene_nodelay_network.node[10].proactive_component 	avg_time[10].proactive_component 	0
scalar abilene_nodelay_network.node[10].proactive_component 	interests_sent[10].proactive_component 	5975
scalar abilene_nodelay_network.client[0] 	hdistance[0].real 	1.3931143220219
scalar abilene_nodelay_network.client[0] 	downloads[0].real 	42494
scalar abilene_nodelay_network.client[0] 	avg_time[0].real 	0
scalar abilene_nodelay_network.client[0] 	interests_sent[0].real 	42494
scalar abilene_nodelay_network.client[1] 	hdistance[1].real 	1.1120841850957
scalar abilene_nodelay_network.client[1] 	downloads[1].real 	43048
scalar abilene_nodelay_network.client[1] 	avg_time[1].real 	0
scalar abilene_nodelay_network.client[1] 	interests_sent[1].real 	43048
scalar abilene_nodelay_network.client[2] 	hdistance[2].real 	0.95497028318378
scalar abilene_nodelay_network.client[2] 	downloads[2].real 	42905
scalar abilene_nodelay_network.client[2] 	avg_time[2].real 	0
scalar abilene_nodelay_network.client[2] 	interests_sent[2].real 	42905
scalar abilene_nodelay_network.client[3] 	hdistance[3].real 	0.94746464856859
scalar abilene_nodelay_network.client[3] 	downloads[3].real 	43209
scalar abilene_nodelay_network.client[3] 	avg_time[3].real 	0
scalar abilene_nodelay_network.client[3] 	interests_sent[3].real 	43209
scalar abilene_nodelay_network.client[4] 	hdistance[4].real 	1.2203898050974
scalar abilene_nodelay_network.client[4] 	downloads[4].real 	42688
scalar abilene_nodelay_network.client[4] 	avg_time[4].real 	0
scalar abilene_nodelay_network.client[4] 	interests_sent[4].real 	42688
scalar abilene_nodelay_network.client[5] 	hdistance[5].real 	1.491149414607
scalar abilene_nodelay_network.client[5] 	downloads[5].real 	43048
scalar abilene_nodelay_network.client[5] 	avg_time[5].real 	0
scalar abilene_nodelay_network.client[5] 	interests_sent[5].real 	43048
scalar abilene_nodelay_network.client[6] 	hdistance[6].real 	1.2898391983221
scalar abilene_nodelay_network.client[6] 	downloads[6].real 	42910
scalar abilene_nodelay_network.client[6] 	avg_time[6].real 	0
scalar abilene_nodelay_network.client[6] 	interests_sent[6].real 	42910
scalar abilene_nodelay_network.client[7] 	hdistance[7].real 	1.0160061508353
scalar abilene_nodelay_network.client[7] 	downloads[7].real 	42921
scalar abilene_nodelay_network.client[7] 	avg_time[7].real 	0
scalar abilene_nodelay_network.client[7] 	interests_sent[7].real 	42921
scalar abilene_nodelay_network.client[8] 	hdistance[8].real 	0.98618327547241
scalar abilene_nodelay_network.client[8] 	downloads[8].real 	42919
scalar abilene_nodelay_network.client[8] 	avg_time[8].real 	0
scalar abilene_nodelay_network.client[8] 	interests_sent[8].real 	42919
scalar abilene_nodelay_network.client[9] 	hdistance[9].real 	1.2383592538646
scalar abilene_nodelay_network.client[9] 	downloads[9].real 	42566
scalar abilene_nodelay_network.client[9] 	avg_time[9].real 	0
scalar abilene_nodelay_network.client[9] 	interests_sent[9].real 	42566
scalar abilene_nodelay_network.client[10] 	hdistance[10].real 	1.2964704231282
scalar abilene_nodelay_network.client[10] 	downloads[10].real 	42753
scalar abilene_nodelay_network.client[10] 	avg_time[10].real 	0
scalar abilene_nodelay_network.client[10] 	interests_sent[10].real 	42753
