version 2
run General-49-20140418-15:09:03-1467
attr D fix0.1
attr F nrr
attr R lru
attr a 1
attr configname General
attr csize 10
attr ctlg 10^6
attr datetime 20140418-15:09:03
attr experiment General
attr inifile omnetpp.ini
attr iterationvars "$net=simple_scenario, $rep=1, $priceratiovalue=4, $a=1, $ctlg=10^6, $F=nrr, $ttl=1000, $D=fix0.1, $R=lru, $csize=10"
attr iterationvars2 "$net=simple_scenario, $rep=1, $priceratiovalue=4, $a=1, $ctlg=10^6, $F=nrr, $ttl=1000, $D=fix0.1, $R=lru, $csize=10, $repetition=0"
attr measurement "$net=simple_scenario, $rep=1, $priceratiovalue=4, $a=1, $ctlg=10^6, $F=nrr, $ttl=1000, $D=fix0.1, $R=lru, $csize=10"
attr net simple_scenario
attr network networks.${net=simple_scenario}_network
attr priceratiovalue 4
attr processid 1467
attr rep 1
attr repetition 0
attr replication #0
attr resultdir results
attr runnumber 49
attr seedset 1
attr ttl 1000

scalar . 	a 	1
scalar . 	csize 	10
scalar . 	priceratiovalue 	4
scalar . 	rep 	1
scalar . 	ttl 	1000
scalar simple_scenario_network.content_distribution 	repo-0 	3
scalar simple_scenario_network.content_distribution 	repo-1 	4
scalar simple_scenario_network.content_distribution 	client-0 	0
scalar simple_scenario_network.content_distribution 	repo-0_card 	500011
scalar simple_scenario_network.content_distribution 	repo-1_card 	499989
scalar simple_scenario_network.statistics 	p_hit 	0.059075568479493
scalar simple_scenario_network.statistics 	interests 	98490.8
scalar simple_scenario_network.statistics 	data 	62407.6
scalar simple_scenario_network.statistics 	hdistance 	2.5682977119546
scalar simple_scenario_network.statistics 	avg_time 	0.001998393033
scalar simple_scenario_network.statistics 	downloads 	180416
scalar simple_scenario_network.statistics 	total_cost 	76467
scalar simple_scenario_network.node[0].core_layer 	interests[0] 	180416
scalar simple_scenario_network.node[0].core_layer 	data[0] 	160714
scalar simple_scenario_network.node[0].core_layer 	repo_int[0] 	151324
scalar simple_scenario_network.node[0].content_store 	p_hit[0] 	0.10920317488471
scalar simple_scenario_network.node[0].content_store 	hits[0] 	19702
scalar simple_scenario_network.node[0].content_store 	misses[0] 	160714
scalar simple_scenario_network.node[1].core_layer 	interests[1] 	78463
scalar simple_scenario_network.node[1].core_layer 	data[1] 	74318
scalar simple_scenario_network.node[1].content_store 	p_hit[1] 	0.052827447331863
scalar simple_scenario_network.node[1].content_store 	hits[1] 	4145
scalar simple_scenario_network.node[1].content_store 	misses[1] 	74318
scalar simple_scenario_network.node[2].core_layer 	interests[2] 	82251
scalar simple_scenario_network.node[2].core_layer 	data[2] 	77006
scalar simple_scenario_network.node[2].content_store 	p_hit[2] 	0.063768221662959
scalar simple_scenario_network.node[2].content_store 	hits[2] 	5245
scalar simple_scenario_network.node[2].content_store 	misses[2] 	77006
scalar simple_scenario_network.node[3].core_layer 	interests[3] 	74318
scalar simple_scenario_network.node[3].core_layer 	repo_load[3] 	74318
scalar simple_scenario_network.node[3].core_layer 	data[3] 	0
scalar simple_scenario_network.node[3].content_store 	p_hit[3] 	0
scalar simple_scenario_network.node[3].content_store 	hits[3] 	0
scalar simple_scenario_network.node[3].content_store 	misses[3] 	74318
scalar simple_scenario_network.node[4].core_layer 	interests[4] 	77006
scalar simple_scenario_network.node[4].core_layer 	repo_load[4] 	77006
scalar simple_scenario_network.node[4].core_layer 	data[4] 	0
scalar simple_scenario_network.node[4].content_store 	p_hit[4] 	0
scalar simple_scenario_network.node[4].content_store 	hits[4] 	0
scalar simple_scenario_network.node[4].content_store 	misses[4] 	77006
scalar simple_scenario_network.client[0] 	hdistance[0] 	2.5682977119546
scalar simple_scenario_network.client[0] 	downloads[0] 	180416
scalar simple_scenario_network.client[0] 	avg_time[0] 	0.001998393033
