version 2
run General-1289-20140421-20:31:03-16034
attr D costprob0.01
attr F nrr
attr R lru
attr a 0.8
attr configname General
attr csize 10
attr ctlg 10^3
attr datetime 20140421-20:31:03
attr experiment General
attr inifile omnetpp.ini
attr iterationvars "$net=simple_scenario, $rep=27, $priceratiovalue=5, $a=0.8, $ctlg=10^3, $F=nrr, $ttl=1000, $D=costprob0.01, $R=lru, $csize=10"
attr iterationvars2 "$net=simple_scenario, $rep=27, $priceratiovalue=5, $a=0.8, $ctlg=10^3, $F=nrr, $ttl=1000, $D=costprob0.01, $R=lru, $csize=10, $repetition=0"
attr measurement "$net=simple_scenario, $rep=27, $priceratiovalue=5, $a=0.8, $ctlg=10^3, $F=nrr, $ttl=1000, $D=costprob0.01, $R=lru, $csize=10"
attr net simple_scenario
attr network networks.${net=simple_scenario}_network
attr priceratiovalue 5
attr processid 16034
attr rep 27
attr repetition 0
attr replication #0
attr resultdir results
attr runnumber 1289
attr seedset 27
attr ttl 1000

scalar . 	a 	0.8
scalar . 	csize 	10
scalar . 	priceratiovalue 	5
scalar . 	rep 	27
scalar . 	ttl 	1000
scalar simple_scenario_network.content_distribution 	repo-0 	3
scalar simple_scenario_network.content_distribution 	repo-1 	4
scalar simple_scenario_network.content_distribution 	client-0 	0
scalar simple_scenario_network.content_distribution 	repo-0_card 	523
scalar simple_scenario_network.content_distribution 	repo-1_card 	477
scalar simple_scenario_network.statistics 	p_hit 	0.11629865269461
scalar simple_scenario_network.statistics 	interests 	91916.8
scalar simple_scenario_network.statistics 	data 	55974.6
scalar simple_scenario_network.statistics 	hdistance 	2.2599340051527
scalar simple_scenario_network.statistics 	avg_time 	0.001998051821
scalar simple_scenario_network.statistics 	downloads 	179711
scalar simple_scenario_network.statistics 	total_cost 	62605
scalar simple_scenario_network.node[0].core_layer 	interests[0] 	179711
scalar simple_scenario_network.node[0].core_layer 	data[0] 	153611
scalar simple_scenario_network.node[0].core_layer 	repo_int[0] 	126262
scalar simple_scenario_network.node[0].content_store 	p_hit[0] 	0.1452331799389
scalar simple_scenario_network.node[0].content_store 	hits[0] 	26100
scalar simple_scenario_network.node[0].content_store 	misses[0] 	153611
scalar simple_scenario_network.node[1].core_layer 	interests[1] 	82417
scalar simple_scenario_network.node[1].core_layer 	data[1] 	63919
scalar simple_scenario_network.node[1].content_store 	p_hit[1] 	0.22444398607083
scalar simple_scenario_network.node[1].content_store 	hits[1] 	18498
scalar simple_scenario_network.node[1].content_store 	misses[1] 	63919
scalar simple_scenario_network.node[2].core_layer 	interests[2] 	71194
scalar simple_scenario_network.node[2].core_layer 	data[2] 	62343
scalar simple_scenario_network.node[2].content_store 	p_hit[2] 	0.12432227434896
scalar simple_scenario_network.node[2].content_store 	hits[2] 	8851
scalar simple_scenario_network.node[2].content_store 	misses[2] 	62343
scalar simple_scenario_network.node[3].core_layer 	interests[3] 	63919
scalar simple_scenario_network.node[3].core_layer 	repo_load[3] 	63919
scalar simple_scenario_network.node[3].core_layer 	data[3] 	0
scalar simple_scenario_network.node[3].content_store 	p_hit[3] 	0
scalar simple_scenario_network.node[3].content_store 	hits[3] 	0
scalar simple_scenario_network.node[3].content_store 	misses[3] 	63919
scalar simple_scenario_network.node[4].core_layer 	interests[4] 	62343
scalar simple_scenario_network.node[4].core_layer 	repo_load[4] 	62343
scalar simple_scenario_network.node[4].core_layer 	data[4] 	0
scalar simple_scenario_network.node[4].content_store 	p_hit[4] 	0
scalar simple_scenario_network.node[4].content_store 	hits[4] 	0
scalar simple_scenario_network.node[4].content_store 	misses[4] 	62343
scalar simple_scenario_network.client[0] 	hdistance[0] 	2.2599340051527
scalar simple_scenario_network.client[0] 	downloads[0] 	179711
scalar simple_scenario_network.client[0] 	avg_time[0] 	0.001998051821
