version 2
run General-7-20140703-16:31:15-5270
attr D lce
attr F nrr
attr R lru
attr a 1.2
attr configname General
attr csize 1e3
attr ctlg 1e5
attr datetime 20140703-16:31:15
attr experiment General
attr inifile omnetpp.ini
attr iterationvars "$net=geant_cost, $rep=1, $priceratiovalue=10, $weights=0.333_0.333_0.334, $lambda=100, $a=1.2, $ctlg=1e5, $F=nrr, $ttl=1000, $D=lce, $xi=1, $R=lru, $csize=1e3, $pricebits=0, $window=60, $variance=0.05, $mytime=1800"
attr iterationvars2 "$net=geant_cost, $rep=1, $priceratiovalue=10, $weights=0.333_0.333_0.334, $lambda=100, $a=1.2, $ctlg=1e5, $F=nrr, $ttl=1000, $D=lce, $xi=1, $R=lru, $csize=1e3, $pricebits=0, $window=60, $variance=0.05, $mytime=1800, $repetition=0"
attr lambda 100
attr measurement "$net=geant_cost, $rep=1, $priceratiovalue=10, $weights=0.333_0.333_0.334, $lambda=100, $a=1.2, $ctlg=1e5, $F=nrr, $ttl=1000, $D=lce, $xi=1, $R=lru, $csize=1e3, $pricebits=0, $window=60, $variance=0.05, $mytime=1800"
attr mytime 1800
attr net geant_cost
attr network "networks.${net=geant_cost, abilene_cost}_network"
attr pricebits 0
attr priceratiovalue 10
attr processid 5270
attr rep 1
attr repetition 0
attr replication #0
attr resultdir results
attr runnumber 7
attr seedset 1
attr ttl 1000
attr variance 0.05
attr weights 0.333_0.333_0.334
attr window 60
attr xi 1

scalar . 	a 	1.2
scalar . 	csize 	1e3
scalar . 	ctlg 	1e5
scalar . 	lambda 	100
scalar . 	mytime 	1800
scalar . 	pricebits 	0
scalar . 	priceratiovalue 	10
scalar . 	rep 	1
scalar . 	ttl 	1000
scalar . 	variance 	0.05
scalar . 	window 	60
scalar . 	xi 	1
scalar geant_cost_network.content_distribution 	repo-0 	22
scalar geant_cost_network.content_distribution 	repo-1 	23
scalar geant_cost_network.content_distribution 	repo-2 	24
scalar geant_cost_network.content_distribution 	client-0 	20
scalar geant_cost_network.content_distribution 	client-1 	10
scalar geant_cost_network.content_distribution 	client-2 	12
scalar geant_cost_network.content_distribution 	client-3 	9
scalar geant_cost_network.content_distribution 	client-4 	5
scalar geant_cost_network.content_distribution 	repo-0_card 	33396
scalar geant_cost_network.content_distribution 	repo-1_card 	33039
scalar geant_cost_network.content_distribution 	repo-2_card 	33565
scalar geant_cost_network.statistics 	repo_popularity[0] 	0.22765990951337
scalar geant_cost_network.statistics 	repo_popularity[1] 	0.24041996934949
scalar geant_cost_network.statistics 	repo_popularity[2] 	0.53192012113714
scalar geant_cost_network.node[7].face$o[4].channel 	price[7] 	0
scalar geant_cost_network.node[7].face$o[4].channel 	represented_price[7] 	0
scalar geant_cost_network.node[8].face$o[3].channel 	price[8] 	0
scalar geant_cost_network.node[8].face$o[3].channel 	represented_price[8] 	0
scalar geant_cost_network.node[21].face$o[5].channel 	price[21] 	0
scalar geant_cost_network.node[21].face$o[5].channel 	represented_price[21] 	0
scalar geant_cost_network.node[22].face$o[1].channel 	price[22] 	0
scalar geant_cost_network.node[22].face$o[1].channel 	represented_price[22] 	0
scalar geant_cost_network.node[23].face$o[1].channel 	price[23] 	1
scalar geant_cost_network.node[23].face$o[1].channel 	represented_price[23] 	1
scalar geant_cost_network.node[24].face$o[1].channel 	price[24] 	10
scalar geant_cost_network.node[24].face$o[1].channel 	represented_price[24] 	10
scalar geant_cost_network.statistics 	p_hit 	0.29455819561161
scalar geant_cost_network.statistics 	interests 	168971.16
scalar geant_cost_network.statistics 	data 	99061.84
scalar geant_cost_network.statistics 	hdistance 	1.7070384056792
scalar geant_cost_network.statistics 	avg_time 	0.00565209366
scalar geant_cost_network.statistics 	downloads 	1743856
scalar geant_cost_network.statistics 	total_cost 	1824053
scalar geant_cost_network.statistics 	total_replicas 	100000
scalar geant_cost_network.statistics 	inner_hit 	0.71524311640411
scalar geant_cost_network.statistics 	interests_sent 	1747724
scalar geant_cost_network.node[0].core_layer 	interests[0] 	0
scalar geant_cost_network.node[0].core_layer 	data[0] 	0
scalar geant_cost_network.node[0].core_layer 	repo_int[0] 	496575
scalar geant_cost_network.node[0].content_store 	p_hit[0] 	-nan
scalar geant_cost_network.node[0].content_store 	hits[0] 	0
scalar geant_cost_network.node[0].content_store 	misses[0] 	0
scalar geant_cost_network.node[0].content_store 	decision_yes[0] 	0
scalar geant_cost_network.node[0].content_store 	decision_no[0] 	0
scalar geant_cost_network.node[0].content_store 	decision_ratio[0] 	0
scalar geant_cost_network.node[1].core_layer 	interests[1] 	0
scalar geant_cost_network.node[1].core_layer 	data[1] 	0
scalar geant_cost_network.node[1].content_store 	p_hit[1] 	-nan
scalar geant_cost_network.node[1].content_store 	hits[1] 	0
scalar geant_cost_network.node[1].content_store 	misses[1] 	0
scalar geant_cost_network.node[1].content_store 	decision_yes[1] 	0
scalar geant_cost_network.node[1].content_store 	decision_no[1] 	0
scalar geant_cost_network.node[1].content_store 	decision_ratio[1] 	0
scalar geant_cost_network.node[2].core_layer 	interests[2] 	0
scalar geant_cost_network.node[2].core_layer 	data[2] 	0
scalar geant_cost_network.node[2].content_store 	p_hit[2] 	-nan
scalar geant_cost_network.node[2].content_store 	hits[2] 	0
scalar geant_cost_network.node[2].content_store 	misses[2] 	0
scalar geant_cost_network.node[2].content_store 	decision_yes[2] 	0
scalar geant_cost_network.node[2].content_store 	decision_no[2] 	0
scalar geant_cost_network.node[2].content_store 	decision_ratio[2] 	0
scalar geant_cost_network.node[3].core_layer 	interests[3] 	161909
scalar geant_cost_network.node[3].core_layer 	data[3] 	148355
scalar geant_cost_network.node[3].content_store 	p_hit[3] 	0.08371369102397
scalar geant_cost_network.node[3].content_store 	hits[3] 	13554
scalar geant_cost_network.node[3].content_store 	misses[3] 	148355
scalar geant_cost_network.node[3].content_store 	decision_yes[3] 	148327
scalar geant_cost_network.node[3].content_store 	decision_no[3] 	0
scalar geant_cost_network.node[3].content_store 	decision_ratio[3] 	1
scalar geant_cost_network.node[4].core_layer 	interests[4] 	221772
scalar geant_cost_network.node[4].core_layer 	data[4] 	219228
scalar geant_cost_network.node[4].content_store 	p_hit[4] 	0.011453204191692
scalar geant_cost_network.node[4].content_store 	hits[4] 	2540
scalar geant_cost_network.node[4].content_store 	misses[4] 	219232
scalar geant_cost_network.node[4].content_store 	decision_yes[4] 	219198
scalar geant_cost_network.node[4].content_store 	decision_no[4] 	0
scalar geant_cost_network.node[4].content_store 	decision_ratio[4] 	1
scalar geant_cost_network.node[5].core_layer 	interests[5] 	359146
scalar geant_cost_network.node[5].core_layer 	data[5] 	171109
scalar geant_cost_network.node[5].content_store 	p_hit[5] 	0.52153163337473
scalar geant_cost_network.node[5].content_store 	hits[5] 	187306
scalar geant_cost_network.node[5].content_store 	misses[5] 	171840
scalar geant_cost_network.node[5].content_store 	decision_yes[5] 	171109
scalar geant_cost_network.node[5].content_store 	decision_no[5] 	0
scalar geant_cost_network.node[5].content_store 	decision_ratio[5] 	1
scalar geant_cost_network.node[6].core_layer 	interests[6] 	78366
scalar geant_cost_network.node[6].core_layer 	data[6] 	67510
scalar geant_cost_network.node[6].content_store 	p_hit[6] 	0.1385294643085
scalar geant_cost_network.node[6].content_store 	hits[6] 	10856
scalar geant_cost_network.node[6].content_store 	misses[6] 	67510
scalar geant_cost_network.node[6].content_store 	decision_yes[6] 	67510
scalar geant_cost_network.node[6].content_store 	decision_no[6] 	0
scalar geant_cost_network.node[6].content_store 	decision_ratio[6] 	1
scalar geant_cost_network.node[7].core_layer 	interests[7] 	243176
scalar geant_cost_network.node[7].core_layer 	data[7] 	238493
scalar geant_cost_network.node[7].content_store 	p_hit[7] 	0.01923298351811
scalar geant_cost_network.node[7].content_store 	hits[7] 	4677
scalar geant_cost_network.node[7].content_store 	misses[7] 	238499
scalar geant_cost_network.node[7].content_store 	decision_yes[7] 	238480
scalar geant_cost_network.node[7].content_store 	decision_no[7] 	0
scalar geant_cost_network.node[7].content_store 	decision_ratio[7] 	1
scalar geant_cost_network.node[8].core_layer 	interests[8] 	243735
scalar geant_cost_network.node[8].core_layer 	data[8] 	237221
scalar geant_cost_network.node[8].content_store 	p_hit[8] 	0.026721644408887
scalar geant_cost_network.node[8].content_store 	hits[8] 	6513
scalar geant_cost_network.node[8].content_store 	misses[8] 	237222
scalar geant_cost_network.node[8].content_store 	decision_yes[8] 	237215
scalar geant_cost_network.node[8].content_store 	decision_no[8] 	0
scalar geant_cost_network.node[8].content_store 	decision_ratio[8] 	1
scalar geant_cost_network.node[9].core_layer 	interests[9] 	557943
scalar geant_cost_network.node[9].core_layer 	data[9] 	368898
scalar geant_cost_network.node[9].content_store 	p_hit[9] 	0.33602536459818
scalar geant_cost_network.node[9].content_store 	hits[9] 	187483
scalar geant_cost_network.node[9].content_store 	misses[9] 	370460
scalar geant_cost_network.node[9].content_store 	decision_yes[9] 	368850
scalar geant_cost_network.node[9].content_store 	decision_no[9] 	0
scalar geant_cost_network.node[9].content_store 	decision_ratio[9] 	1
scalar geant_cost_network.node[10].core_layer 	interests[10] 	371539
scalar geant_cost_network.node[10].core_layer 	data[10] 	164332
scalar geant_cost_network.node[10].content_store 	p_hit[10] 	0.55621617111528
scalar geant_cost_network.node[10].content_store 	hits[10] 	206656
scalar geant_cost_network.node[10].content_store 	misses[10] 	164883
scalar geant_cost_network.node[10].content_store 	decision_yes[10] 	164332
scalar geant_cost_network.node[10].content_store 	decision_no[10] 	0
scalar geant_cost_network.node[10].content_store 	decision_ratio[10] 	1
scalar geant_cost_network.node[11].core_layer 	interests[11] 	0
scalar geant_cost_network.node[11].core_layer 	data[11] 	0
scalar geant_cost_network.node[11].content_store 	p_hit[11] 	-nan
scalar geant_cost_network.node[11].content_store 	hits[11] 	0
scalar geant_cost_network.node[11].content_store 	misses[11] 	0
scalar geant_cost_network.node[11].content_store 	decision_yes[11] 	0
scalar geant_cost_network.node[11].content_store 	decision_no[11] 	0
scalar geant_cost_network.node[11].content_store 	decision_ratio[11] 	0
scalar geant_cost_network.node[12].core_layer 	interests[12] 	525749
scalar geant_cost_network.node[12].core_layer 	data[12] 	316760
scalar geant_cost_network.node[12].content_store 	p_hit[12] 	0.39161462979483
scalar geant_cost_network.node[12].content_store 	hits[12] 	205891
scalar geant_cost_network.node[12].content_store 	misses[12] 	319858
scalar geant_cost_network.node[12].content_store 	decision_yes[12] 	316756
scalar geant_cost_network.node[12].content_store 	decision_no[12] 	0
scalar geant_cost_network.node[12].content_store 	decision_ratio[12] 	1
scalar geant_cost_network.node[13].core_layer 	interests[13] 	104046
scalar geant_cost_network.node[13].core_layer 	data[13] 	2479
scalar geant_cost_network.node[13].content_store 	p_hit[13] 	0.97617399996156
scalar geant_cost_network.node[13].content_store 	hits[13] 	101567
scalar geant_cost_network.node[13].content_store 	misses[13] 	2479
scalar geant_cost_network.node[13].content_store 	decision_yes[13] 	2479
scalar geant_cost_network.node[13].content_store 	decision_no[13] 	0
scalar geant_cost_network.node[13].content_store 	decision_ratio[13] 	1
scalar geant_cost_network.node[14].core_layer 	interests[14] 	128082
scalar geant_cost_network.node[14].core_layer 	data[14] 	84423
scalar geant_cost_network.node[14].content_store 	p_hit[14] 	0.33835355475399
scalar geant_cost_network.node[14].content_store 	hits[14] 	43337
scalar geant_cost_network.node[14].content_store 	misses[14] 	84745
scalar geant_cost_network.node[14].content_store 	decision_yes[14] 	84418
scalar geant_cost_network.node[14].content_store 	decision_no[14] 	0
scalar geant_cost_network.node[14].content_store 	decision_ratio[14] 	1
scalar geant_cost_network.node[15].core_layer 	interests[15] 	75042
scalar geant_cost_network.node[15].core_layer 	data[15] 	51
scalar geant_cost_network.node[15].content_store 	p_hit[15] 	0.99932038058687
scalar geant_cost_network.node[15].content_store 	hits[15] 	74991
scalar geant_cost_network.node[15].content_store 	misses[15] 	51
scalar geant_cost_network.node[15].content_store 	decision_yes[15] 	51
scalar geant_cost_network.node[15].content_store 	decision_no[15] 	0
scalar geant_cost_network.node[15].content_store 	decision_ratio[15] 	1
scalar geant_cost_network.node[16].core_layer 	interests[16] 	0
scalar geant_cost_network.node[16].core_layer 	data[16] 	0
scalar geant_cost_network.node[16].content_store 	p_hit[16] 	-nan
scalar geant_cost_network.node[16].content_store 	hits[16] 	0
scalar geant_cost_network.node[16].content_store 	misses[16] 	0
scalar geant_cost_network.node[16].content_store 	decision_yes[16] 	0
scalar geant_cost_network.node[16].content_store 	decision_no[16] 	0
scalar geant_cost_network.node[16].content_store 	decision_ratio[16] 	0
scalar geant_cost_network.node[17].core_layer 	interests[17] 	0
scalar geant_cost_network.node[17].core_layer 	data[17] 	0
scalar geant_cost_network.node[17].content_store 	p_hit[17] 	-nan
scalar geant_cost_network.node[17].content_store 	hits[17] 	0
scalar geant_cost_network.node[17].content_store 	misses[17] 	0
scalar geant_cost_network.node[17].content_store 	decision_yes[17] 	0
scalar geant_cost_network.node[17].content_store 	decision_no[17] 	0
scalar geant_cost_network.node[17].content_store 	decision_ratio[17] 	0
scalar geant_cost_network.node[18].core_layer 	interests[18] 	136650
scalar geant_cost_network.node[18].core_layer 	data[18] 	124010
scalar geant_cost_network.node[18].content_store 	p_hit[18] 	0.092484449323088
scalar geant_cost_network.node[18].content_store 	hits[18] 	12638
scalar geant_cost_network.node[18].content_store 	misses[18] 	124012
scalar geant_cost_network.node[18].content_store 	decision_yes[18] 	124010
scalar geant_cost_network.node[18].content_store 	decision_no[18] 	0
scalar geant_cost_network.node[18].content_store 	decision_ratio[18] 	1
scalar geant_cost_network.node[19].core_layer 	interests[19] 	0
scalar geant_cost_network.node[19].core_layer 	data[19] 	0
scalar geant_cost_network.node[19].content_store 	p_hit[19] 	-nan
scalar geant_cost_network.node[19].content_store 	hits[19] 	0
scalar geant_cost_network.node[19].content_store 	misses[19] 	0
scalar geant_cost_network.node[19].content_store 	decision_yes[19] 	0
scalar geant_cost_network.node[19].content_store 	decision_no[19] 	0
scalar geant_cost_network.node[19].content_store 	decision_ratio[19] 	0
scalar geant_cost_network.node[20].core_layer 	interests[20] 	350188
scalar geant_cost_network.node[20].core_layer 	data[20] 	167679
scalar geant_cost_network.node[20].content_store 	p_hit[20] 	0.51950380938239
scalar geant_cost_network.node[20].content_store 	hits[20] 	181924
scalar geant_cost_network.node[20].content_store 	misses[20] 	168264
scalar geant_cost_network.node[20].content_store 	decision_yes[20] 	167679
scalar geant_cost_network.node[20].content_store 	decision_no[20] 	0
scalar geant_cost_network.node[20].content_store 	decision_ratio[20] 	1
scalar geant_cost_network.node[21].core_layer 	interests[21] 	170361
scalar geant_cost_network.node[21].core_layer 	data[21] 	165998
scalar geant_cost_network.node[21].content_store 	p_hit[21] 	0.025610321611167
scalar geant_cost_network.node[21].content_store 	hits[21] 	4363
scalar geant_cost_network.node[21].content_store 	misses[21] 	165998
scalar geant_cost_network.node[21].content_store 	decision_yes[21] 	165998
scalar geant_cost_network.node[21].content_store 	decision_no[21] 	0
scalar geant_cost_network.node[21].content_store 	decision_ratio[21] 	1
scalar geant_cost_network.node[22].core_layer 	interests[22] 	166504
scalar geant_cost_network.node[22].core_layer 	repo_load[22] 	166504
scalar geant_cost_network.node[22].core_layer 	data[22] 	0
scalar geant_cost_network.node[22].content_store 	p_hit[22] 	0
scalar geant_cost_network.node[22].content_store 	hits[22] 	0
scalar geant_cost_network.node[22].content_store 	misses[22] 	166504
scalar geant_cost_network.node[22].content_store 	decision_yes[22] 	0
scalar geant_cost_network.node[22].content_store 	decision_no[22] 	166504
scalar geant_cost_network.node[22].content_store 	decision_ratio[22] 	0
scalar geant_cost_network.node[23].core_layer 	interests[23] 	164073
scalar geant_cost_network.node[23].core_layer 	repo_load[23] 	164073
scalar geant_cost_network.node[23].core_layer 	data[23] 	0
scalar geant_cost_network.node[23].content_store 	p_hit[23] 	0
scalar geant_cost_network.node[23].content_store 	hits[23] 	0
scalar geant_cost_network.node[23].content_store 	misses[23] 	164073
scalar geant_cost_network.node[23].content_store 	decision_yes[23] 	0
scalar geant_cost_network.node[23].content_store 	decision_no[23] 	164073
scalar geant_cost_network.node[23].content_store 	decision_ratio[23] 	0
scalar geant_cost_network.node[24].core_layer 	interests[24] 	165998
scalar geant_cost_network.node[24].core_layer 	repo_load[24] 	165998
scalar geant_cost_network.node[24].core_layer 	data[24] 	0
scalar geant_cost_network.node[24].content_store 	p_hit[24] 	0
scalar geant_cost_network.node[24].content_store 	hits[24] 	0
scalar geant_cost_network.node[24].content_store 	misses[24] 	165998
scalar geant_cost_network.node[24].content_store 	decision_yes[24] 	0
scalar geant_cost_network.node[24].content_store 	decision_no[24] 	165998
scalar geant_cost_network.node[24].content_store 	decision_ratio[24] 	0
scalar geant_cost_network.client[5] 	hdistance[5] 	1.5385717068252
scalar geant_cost_network.client[5] 	downloads[5] 	349116
scalar geant_cost_network.client[5] 	avg_time[5] 	0.006530273408
scalar geant_cost_network.client[5] 	interests_sent[5] 	349842
scalar geant_cost_network.client[9] 	hdistance[9] 	1.6133117441394
scalar geant_cost_network.client[9] 	downloads[9] 	348940
scalar geant_cost_network.client[9] 	avg_time[9] 	0.00473535084
scalar geant_cost_network.client[9] 	interests_sent[9] 	349526
scalar geant_cost_network.client[10] 	hdistance[10] 	1.9998767170025
scalar geant_cost_network.client[10] 	downloads[10] 	348791
scalar geant_cost_network.client[10] 	avg_time[10] 	0.005495434155
scalar geant_cost_network.client[10] 	interests_sent[10] 	349342
scalar geant_cost_network.client[12] 	hdistance[12] 	1.5745136970534
scalar geant_cost_network.client[12] 	downloads[12] 	347520
scalar geant_cost_network.client[12] 	avg_time[12] 	0.006417903542
scalar geant_cost_network.client[12] 	interests_sent[12] 	348940
scalar geant_cost_network.client[20] 	hdistance[20] 	1.8089181633757
scalar geant_cost_network.client[20] 	downloads[20] 	349489
scalar geant_cost_network.client[20] 	avg_time[20] 	0.005081506357
scalar geant_cost_network.client[20] 	interests_sent[20] 	350074
