version 2
run General-22-20140625-19:47:22-12893
attr D costprobprodcorr0.01
attr F spr
attr R lru
attr a 1
attr configname General
attr csize 1e3
attr ctlg 1e5
attr datetime 20140625-19:47:22
attr experiment General
attr inifile omnetpp.ini
attr iterationvars "$net=abilene_cost, $rep=1, $priceratiovalue=10, $weights=0.333_0.333_0.334, $lambda=100, $a=1, $ctlg=1e5, $F=spr, $ttl=1000, $D=costprobprodcorr0.01, $xi=5, $R=lru, $csize=1e3, $pricebits=0, $mytime=1800"
attr iterationvars2 "$net=abilene_cost, $rep=1, $priceratiovalue=10, $weights=0.333_0.333_0.334, $lambda=100, $a=1, $ctlg=1e5, $F=spr, $ttl=1000, $D=costprobprodcorr0.01, $xi=5, $R=lru, $csize=1e3, $pricebits=0, $mytime=1800, $repetition=0"
attr lambda 100
attr measurement "$net=abilene_cost, $rep=1, $priceratiovalue=10, $weights=0.333_0.333_0.334, $lambda=100, $a=1, $ctlg=1e5, $F=spr, $ttl=1000, $D=costprobprodcorr0.01, $xi=5, $R=lru, $csize=1e3, $pricebits=0, $mytime=1800"
attr mytime 1800
attr net abilene_cost
attr network "networks.${net=geant_cost, abilene_cost}_network"
attr pricebits 0
attr priceratiovalue 10
attr processid 12893
attr rep 1
attr repetition 0
attr replication #0
attr resultdir results
attr runnumber 22
attr seedset 1
attr ttl 1000
attr weights 0.333_0.333_0.334
attr xi 5

scalar . 	a 	1
scalar . 	csize 	1e3
scalar . 	ctlg 	1e5
scalar . 	lambda 	100
scalar . 	mytime 	1800
scalar . 	pricebits 	0
scalar . 	priceratiovalue 	10
scalar . 	rep 	1
scalar . 	ttl 	1000
scalar . 	xi 	5
scalar abilene_cost_network.content_distribution 	repo-0 	11
scalar abilene_cost_network.content_distribution 	repo-1 	12
scalar abilene_cost_network.content_distribution 	repo-2 	13
scalar abilene_cost_network.content_distribution 	client-0 	5
scalar abilene_cost_network.content_distribution 	client-1 	0
scalar abilene_cost_network.content_distribution 	client-2 	9
scalar abilene_cost_network.content_distribution 	repo-0_card 	33396
scalar abilene_cost_network.content_distribution 	repo-1_card 	33039
scalar abilene_cost_network.content_distribution 	repo-2_card 	33565
scalar abilene_cost_network.statistics 	repo_popularity[0] 	0.28686251265602
scalar abilene_cost_network.statistics 	repo_popularity[1] 	0.2886063426465
scalar abilene_cost_network.statistics 	repo_popularity[2] 	0.42453114469748
scalar abilene_cost_network.statistics 	stabilization_time 	36060
scalar abilene_cost_network.node[1].face$o[4].channel 	price[1] 	0
scalar abilene_cost_network.node[1].face$o[4].channel 	represented_price[1] 	0
scalar abilene_cost_network.node[7].face$o[4].channel 	price[7] 	0
scalar abilene_cost_network.node[7].face$o[4].channel 	represented_price[7] 	0
scalar abilene_cost_network.node[10].face$o[4].channel 	price[10] 	0
scalar abilene_cost_network.node[10].face$o[4].channel 	represented_price[10] 	0
scalar abilene_cost_network.node[11].face$o[1].channel 	price[11] 	0
scalar abilene_cost_network.node[11].face$o[1].channel 	represented_price[11] 	0
scalar abilene_cost_network.node[12].face$o[1].channel 	price[12] 	1
scalar abilene_cost_network.node[12].face$o[1].channel 	represented_price[12] 	1
scalar abilene_cost_network.node[13].face$o[1].channel 	price[13] 	10
scalar abilene_cost_network.node[13].face$o[1].channel 	represented_price[13] 	10
scalar abilene_cost_network.statistics 	p_hit 	0.064579769108541
scalar abilene_cost_network.statistics 	interests 	152390.71428571
scalar abilene_cost_network.statistics 	data 	113887.14285714
scalar abilene_cost_network.statistics 	hdistance 	3.745403373051
scalar abilene_cost_network.statistics 	avg_time 	0.014506752526
scalar abilene_cost_network.statistics 	downloads 	531121
scalar abilene_cost_network.statistics 	total_cost 	1000885
scalar abilene_cost_network.statistics 	total_replicas 	100000
scalar abilene_cost_network.statistics 	inner_hit 	0.25941169714622
scalar abilene_cost_network.statistics 	interests_sent 	539051
scalar abilene_cost_network.node[0].core_layer 	interests[0] 	179784
scalar abilene_cost_network.node[0].core_layer 	data[0] 	165486
scalar abilene_cost_network.node[0].core_layer 	repo_int[0] 	393342
scalar abilene_cost_network.node[0].content_store 	p_hit[0] 	0.067347483647043
scalar abilene_cost_network.node[0].content_store 	hits[0] 	12108
scalar abilene_cost_network.node[0].content_store 	misses[0] 	167676
scalar abilene_cost_network.node[0].content_store 	decision_yes[0] 	929
scalar abilene_cost_network.node[0].content_store 	decision_no[0] 	164557
scalar abilene_cost_network.node[0].content_store 	decision_ratio[0] 	0.0056137679320305
scalar abilene_cost_network.node[0].content_store 	correction_factor[0] 	2.9939821258668e-07
scalar abilene_cost_network.node[0].content_store 	xi[0] 	5
scalar abilene_cost_network.node[1].core_layer 	interests[1] 	271134
scalar abilene_cost_network.node[1].core_layer 	data[1] 	187155
scalar abilene_cost_network.node[1].content_store 	p_hit[1] 	0.30973245701388
scalar abilene_cost_network.node[1].content_store 	hits[1] 	83979
scalar abilene_cost_network.node[1].content_store 	misses[1] 	187155
scalar abilene_cost_network.node[1].content_store 	decision_yes[1] 	2548
scalar abilene_cost_network.node[1].content_store 	decision_no[1] 	184607
scalar abilene_cost_network.node[1].content_store 	decision_ratio[1] 	0.013614383799524
scalar abilene_cost_network.node[1].content_store 	correction_factor[1] 	2.9939821258668e-07
scalar abilene_cost_network.node[1].content_store 	xi[1] 	5
scalar abilene_cost_network.node[2].core_layer 	interests[2] 	161879
scalar abilene_cost_network.node[2].core_layer 	data[2] 	149369
scalar abilene_cost_network.node[2].content_store 	p_hit[2] 	0.077279943661624
scalar abilene_cost_network.node[2].content_store 	hits[2] 	12510
scalar abilene_cost_network.node[2].content_store 	misses[2] 	149369
scalar abilene_cost_network.node[2].content_store 	decision_yes[2] 	792
scalar abilene_cost_network.node[2].content_store 	decision_no[2] 	148577
scalar abilene_cost_network.node[2].content_store 	decision_ratio[2] 	0.0053023050298255
scalar abilene_cost_network.node[2].content_store 	correction_factor[2] 	2.9939821258668e-07
scalar abilene_cost_network.node[2].content_store 	xi[2] 	5
scalar abilene_cost_network.node[3].core_layer 	interests[3] 	168834
scalar abilene_cost_network.node[3].core_layer 	data[3] 	161880
scalar abilene_cost_network.node[3].content_store 	p_hit[3] 	0.041194309203123
scalar abilene_cost_network.node[3].content_store 	hits[3] 	6955
scalar abilene_cost_network.node[3].content_store 	misses[3] 	161879
scalar abilene_cost_network.node[3].content_store 	decision_yes[3] 	767
scalar abilene_cost_network.node[3].content_store 	decision_no[3] 	161113
scalar abilene_cost_network.node[3].content_store 	decision_ratio[3] 	0.004738077588337
scalar abilene_cost_network.node[3].content_store 	correction_factor[3] 	2.9939821258668e-07
scalar abilene_cost_network.node[3].content_store 	xi[3] 	5
scalar abilene_cost_network.node[4].core_layer 	interests[4] 	119947
scalar abilene_cost_network.node[4].core_layer 	data[4] 	117036
scalar abilene_cost_network.node[4].content_store 	p_hit[4] 	0.024277389180221
scalar abilene_cost_network.node[4].content_store 	hits[4] 	2912
scalar abilene_cost_network.node[4].content_store 	misses[4] 	117035
scalar abilene_cost_network.node[4].content_store 	decision_yes[4] 	802
scalar abilene_cost_network.node[4].content_store 	decision_no[4] 	116234
scalar abilene_cost_network.node[4].content_store 	decision_ratio[4] 	0.0068525923647425
scalar abilene_cost_network.node[4].content_store 	correction_factor[4] 	2.9939821258668e-07
scalar abilene_cost_network.node[4].content_store 	xi[4] 	5
scalar abilene_cost_network.node[5].core_layer 	interests[5] 	179450
scalar abilene_cost_network.node[5].core_layer 	data[5] 	171909
scalar abilene_cost_network.node[5].content_store 	p_hit[5] 	0.023533017553636
scalar abilene_cost_network.node[5].content_store 	hits[5] 	4223
scalar abilene_cost_network.node[5].content_store 	misses[5] 	175227
scalar abilene_cost_network.node[5].content_store 	decision_yes[5] 	773
scalar abilene_cost_network.node[5].content_store 	decision_no[5] 	171136
scalar abilene_cost_network.node[5].content_store 	decision_ratio[5] 	0.0044965650431333
scalar abilene_cost_network.node[5].content_store 	correction_factor[5] 	2.9939821258668e-07
scalar abilene_cost_network.node[5].content_store 	xi[5] 	5
scalar abilene_cost_network.node[6].core_layer 	interests[6] 	51963
scalar abilene_cost_network.node[6].core_layer 	data[6] 	51962
scalar abilene_cost_network.node[6].content_store 	p_hit[6] 	0
scalar abilene_cost_network.node[6].content_store 	hits[6] 	0
scalar abilene_cost_network.node[6].content_store 	misses[6] 	51963
scalar abilene_cost_network.node[6].content_store 	decision_yes[6] 	0
scalar abilene_cost_network.node[6].content_store 	decision_no[6] 	51962
scalar abilene_cost_network.node[6].content_store 	decision_ratio[6] 	0
scalar abilene_cost_network.node[6].content_store 	correction_factor[6] 	2.9939821258668e-07
scalar abilene_cost_network.node[6].content_store 	xi[6] 	5
scalar abilene_cost_network.node[7].core_layer 	interests[7] 	155535
scalar abilene_cost_network.node[7].core_layer 	data[7] 	155535
scalar abilene_cost_network.node[7].content_store 	p_hit[7] 	0
scalar abilene_cost_network.node[7].content_store 	hits[7] 	0
scalar abilene_cost_network.node[7].content_store 	misses[7] 	155535
scalar abilene_cost_network.node[7].content_store 	decision_yes[7] 	0
scalar abilene_cost_network.node[7].content_store 	decision_no[7] 	155535
scalar abilene_cost_network.node[7].content_store 	decision_ratio[7] 	0
scalar abilene_cost_network.node[7].content_store 	correction_factor[7] 	2.9939821258668e-07
scalar abilene_cost_network.node[7].content_store 	xi[7] 	5
scalar abilene_cost_network.node[8].core_layer 	interests[8] 	51774
scalar abilene_cost_network.node[8].core_layer 	data[8] 	51774
scalar abilene_cost_network.node[8].content_store 	p_hit[8] 	0
scalar abilene_cost_network.node[8].content_store 	hits[8] 	0
scalar abilene_cost_network.node[8].content_store 	misses[8] 	51774
scalar abilene_cost_network.node[8].content_store 	decision_yes[8] 	0
scalar abilene_cost_network.node[8].content_store 	decision_no[8] 	51774
scalar abilene_cost_network.node[8].content_store 	decision_ratio[8] 	0
scalar abilene_cost_network.node[8].content_store 	correction_factor[8] 	2.9939821258668e-07
scalar abilene_cost_network.node[8].content_store 	xi[8] 	5
scalar abilene_cost_network.node[9].core_layer 	interests[9] 	179817
scalar abilene_cost_network.node[9].core_layer 	data[9] 	169861
scalar abilene_cost_network.node[9].content_store 	p_hit[9] 	0.041898152010099
scalar abilene_cost_network.node[9].content_store 	hits[9] 	7534
scalar abilene_cost_network.node[9].content_store 	misses[9] 	172283
scalar abilene_cost_network.node[9].content_store 	decision_yes[9] 	863
scalar abilene_cost_network.node[9].content_store 	decision_no[9] 	168998
scalar abilene_cost_network.node[9].content_store 	decision_ratio[9] 	0.0050806247461159
scalar abilene_cost_network.node[9].content_store 	correction_factor[9] 	2.9939821258668e-07
scalar abilene_cost_network.node[9].content_store 	xi[9] 	5
scalar abilene_cost_network.node[10].core_layer 	interests[10] 	220011
scalar abilene_cost_network.node[10].core_layer 	data[10] 	212453
scalar abilene_cost_network.node[10].content_store 	p_hit[10] 	0.034352827813155
scalar abilene_cost_network.node[10].content_store 	hits[10] 	7558
scalar abilene_cost_network.node[10].content_store 	misses[10] 	212453
scalar abilene_cost_network.node[10].content_store 	decision_yes[10] 	836
scalar abilene_cost_network.node[10].content_store 	decision_no[10] 	211617
scalar abilene_cost_network.node[10].content_store 	decision_ratio[10] 	0.0039349879738107
scalar abilene_cost_network.node[10].content_store 	correction_factor[10] 	2.9939821258668e-07
scalar abilene_cost_network.node[10].content_store 	xi[10] 	5
scalar abilene_cost_network.node[11].core_layer 	interests[11] 	153272
scalar abilene_cost_network.node[11].core_layer 	repo_load[11] 	153272
scalar abilene_cost_network.node[11].core_layer 	data[11] 	0
scalar abilene_cost_network.node[11].content_store 	p_hit[11] 	0
scalar abilene_cost_network.node[11].content_store 	hits[11] 	0
scalar abilene_cost_network.node[11].content_store 	misses[11] 	153272
scalar abilene_cost_network.node[11].content_store 	decision_yes[11] 	0
scalar abilene_cost_network.node[11].content_store 	decision_no[11] 	153272
scalar abilene_cost_network.node[11].content_store 	decision_ratio[11] 	0
scalar abilene_cost_network.node[12].core_layer 	interests[12] 	155535
scalar abilene_cost_network.node[12].core_layer 	repo_load[12] 	155535
scalar abilene_cost_network.node[12].core_layer 	data[12] 	0
scalar abilene_cost_network.node[12].content_store 	p_hit[12] 	0
scalar abilene_cost_network.node[12].content_store 	hits[12] 	0
scalar abilene_cost_network.node[12].content_store 	misses[12] 	155535
scalar abilene_cost_network.node[12].content_store 	decision_yes[12] 	0
scalar abilene_cost_network.node[12].content_store 	decision_no[12] 	155535
scalar abilene_cost_network.node[12].content_store 	decision_ratio[12] 	0
scalar abilene_cost_network.node[13].core_layer 	interests[13] 	84535
scalar abilene_cost_network.node[13].core_layer 	repo_load[13] 	84535
scalar abilene_cost_network.node[13].core_layer 	data[13] 	0
scalar abilene_cost_network.node[13].content_store 	p_hit[13] 	0
scalar abilene_cost_network.node[13].content_store 	hits[13] 	0
scalar abilene_cost_network.node[13].content_store 	misses[13] 	84535
scalar abilene_cost_network.node[13].content_store 	decision_yes[13] 	0
scalar abilene_cost_network.node[13].content_store 	decision_no[13] 	84535
scalar abilene_cost_network.node[13].content_store 	decision_ratio[13] 	0
scalar abilene_cost_network.client[0] 	hdistance[0] 	3.3097345631046
scalar abilene_cost_network.client[0] 	downloads[0] 	177594
scalar abilene_cost_network.client[0] 	avg_time[0] 	0.013666258871
scalar abilene_cost_network.client[0] 	interests_sent[0] 	179784
scalar abilene_cost_network.client[5] 	hdistance[5] 	4.863920241637
scalar abilene_cost_network.client[5] 	downloads[5] 	176132
scalar abilene_cost_network.client[5] 	avg_time[5] 	0.017834159559
scalar abilene_cost_network.client[5] 	interests_sent[5] 	179450
scalar abilene_cost_network.client[9] 	hdistance[9] 	3.0625553144113
scalar abilene_cost_network.client[9] 	downloads[9] 	177395
scalar abilene_cost_network.client[9] 	avg_time[9] 	0.01201983915
scalar abilene_cost_network.client[9] 	interests_sent[9] 	179817
