version 2
run General-2272-20140502-05:30:49-11220
attr D costprob0.01
attr F nrr
attr R lru
attr a 0.8
attr configname General
attr csize 1e3
attr ctlg 1e5
attr datetime 20140502-05:30:49
attr experiment General
attr inifile omnetpp.ini
attr iterationvars "$net=three_caches_scenario_3_links, $rep=4, $priceratiovalue=10, $weights=0_0.5_0.5, $a=0.8, $ctlg=1e5, $F=nrr, $ttl=1000, $D=costprob0.01, $xi=1, $R=lru, $csize=1e3"
attr iterationvars2 "$net=three_caches_scenario_3_links, $rep=4, $priceratiovalue=10, $weights=0_0.5_0.5, $a=0.8, $ctlg=1e5, $F=nrr, $ttl=1000, $D=costprob0.01, $xi=1, $R=lru, $csize=1e3, $repetition=0"
attr measurement "$net=three_caches_scenario_3_links, $rep=4, $priceratiovalue=10, $weights=0_0.5_0.5, $a=0.8, $ctlg=1e5, $F=nrr, $ttl=1000, $D=costprob0.01, $xi=1, $R=lru, $csize=1e3"
attr net three_caches_scenario_3_links
attr network networks.${net=three_caches_scenario_3_links}_network
attr priceratiovalue 10
attr processid 11220
attr rep 4
attr repetition 0
attr replication #0
attr resultdir results
attr runnumber 2272
attr seedset 4
attr ttl 1000
attr weights 0_0.5_0.5
attr xi 1

scalar . 	a 	0.8
scalar . 	csize 	1e3
scalar . 	ctlg 	1e5
scalar . 	priceratiovalue 	10
scalar . 	rep 	4
scalar . 	ttl 	1000
scalar . 	xi 	1
scalar three_caches_scenario_3_links_network.content_distribution 	repo-0 	4
scalar three_caches_scenario_3_links_network.content_distribution 	repo-1 	5
scalar three_caches_scenario_3_links_network.content_distribution 	repo-2 	6
scalar three_caches_scenario_3_links_network.content_distribution 	client-0 	0
scalar three_caches_scenario_3_links_network.content_distribution 	repo-0_card 	0
scalar three_caches_scenario_3_links_network.content_distribution 	repo-1_card 	50243
scalar three_caches_scenario_3_links_network.content_distribution 	repo-2_card 	49757
scalar three_caches_scenario_3_links_network.statistics 	p_hit 	0.09957251015765
scalar three_caches_scenario_3_links_network.statistics 	interests 	67436.857142857
scalar three_caches_scenario_3_links_network.statistics 	data 	41762.571428571
scalar three_caches_scenario_3_links_network.statistics 	hdistance 	2.365090140218
scalar three_caches_scenario_3_links_network.statistics 	avg_time 	0
scalar three_caches_scenario_3_links_network.statistics 	downloads 	179720
scalar three_caches_scenario_3_links_network.statistics 	total_cost 	698294
scalar three_caches_scenario_3_links_network.statistics 	total_replicas 	100000
scalar three_caches_scenario_3_links_network.statistics 	interests_sent 	179720
scalar three_caches_scenario_3_links_network.node[0].core_layer 	interests[0] 	179720
scalar three_caches_scenario_3_links_network.node[0].core_layer 	data[0] 	159622
scalar three_caches_scenario_3_links_network.node[0].core_layer 	repo_int[0] 	132716
scalar three_caches_scenario_3_links_network.node[0].content_store 	p_hit[0] 	0.11182951257512
scalar three_caches_scenario_3_links_network.node[0].content_store 	hits[0] 	20098
scalar three_caches_scenario_3_links_network.node[0].content_store 	misses[0] 	159622
scalar three_caches_scenario_3_links_network.node[0].content_store 	decision_yes[0] 	1261
scalar three_caches_scenario_3_links_network.node[0].content_store 	decision_no[0] 	158361
scalar three_caches_scenario_3_links_network.node[1].core_layer 	interests[1] 	0
scalar three_caches_scenario_3_links_network.node[1].core_layer 	data[1] 	0
scalar three_caches_scenario_3_links_network.node[1].content_store 	p_hit[1] 	-nan
scalar three_caches_scenario_3_links_network.node[1].content_store 	hits[1] 	0
scalar three_caches_scenario_3_links_network.node[1].content_store 	misses[1] 	0
scalar three_caches_scenario_3_links_network.node[1].content_store 	decision_yes[1] 	0
scalar three_caches_scenario_3_links_network.node[1].content_store 	decision_no[1] 	0
scalar three_caches_scenario_3_links_network.node[2].core_layer 	interests[2] 	86601
scalar three_caches_scenario_3_links_network.node[2].core_layer 	data[2] 	69874
scalar three_caches_scenario_3_links_network.node[2].content_store 	p_hit[2] 	0.1931501945705
scalar three_caches_scenario_3_links_network.node[2].content_store 	hits[2] 	16727
scalar three_caches_scenario_3_links_network.node[2].content_store 	misses[2] 	69874
scalar three_caches_scenario_3_links_network.node[2].content_store 	decision_yes[2] 	121
scalar three_caches_scenario_3_links_network.node[2].content_store 	decision_no[2] 	69753
scalar three_caches_scenario_3_links_network.node[3].core_layer 	interests[3] 	73021
scalar three_caches_scenario_3_links_network.node[3].core_layer 	data[3] 	62842
scalar three_caches_scenario_3_links_network.node[3].content_store 	p_hit[3] 	0.13939825529642
scalar three_caches_scenario_3_links_network.node[3].content_store 	hits[3] 	10179
scalar three_caches_scenario_3_links_network.node[3].content_store 	misses[3] 	62842
scalar three_caches_scenario_3_links_network.node[3].content_store 	decision_yes[3] 	1143
scalar three_caches_scenario_3_links_network.node[3].content_store 	decision_no[3] 	61699
scalar three_caches_scenario_3_links_network.node[4].core_layer 	interests[4] 	0
scalar three_caches_scenario_3_links_network.node[4].core_layer 	data[4] 	0
scalar three_caches_scenario_3_links_network.node[4].content_store 	p_hit[4] 	-nan
scalar three_caches_scenario_3_links_network.node[4].content_store 	hits[4] 	0
scalar three_caches_scenario_3_links_network.node[4].content_store 	misses[4] 	0
scalar three_caches_scenario_3_links_network.node[4].content_store 	decision_yes[4] 	0
scalar three_caches_scenario_3_links_network.node[4].content_store 	decision_no[4] 	0
scalar three_caches_scenario_3_links_network.node[5].core_layer 	interests[5] 	69874
scalar three_caches_scenario_3_links_network.node[5].core_layer 	repo_load[5] 	69874
scalar three_caches_scenario_3_links_network.node[5].core_layer 	data[5] 	0
scalar three_caches_scenario_3_links_network.node[5].content_store 	p_hit[5] 	0
scalar three_caches_scenario_3_links_network.node[5].content_store 	hits[5] 	0
scalar three_caches_scenario_3_links_network.node[5].content_store 	misses[5] 	69874
scalar three_caches_scenario_3_links_network.node[5].content_store 	decision_yes[5] 	0
scalar three_caches_scenario_3_links_network.node[5].content_store 	decision_no[5] 	69874
scalar three_caches_scenario_3_links_network.node[6].core_layer 	interests[6] 	62842
scalar three_caches_scenario_3_links_network.node[6].core_layer 	repo_load[6] 	62842
scalar three_caches_scenario_3_links_network.node[6].core_layer 	data[6] 	0
scalar three_caches_scenario_3_links_network.node[6].content_store 	p_hit[6] 	0
scalar three_caches_scenario_3_links_network.node[6].content_store 	hits[6] 	0
scalar three_caches_scenario_3_links_network.node[6].content_store 	misses[6] 	62842
scalar three_caches_scenario_3_links_network.node[6].content_store 	decision_yes[6] 	0
scalar three_caches_scenario_3_links_network.node[6].content_store 	decision_no[6] 	62842
scalar three_caches_scenario_3_links_network.client[0] 	hdistance[0] 	2.365090140218
scalar three_caches_scenario_3_links_network.client[0] 	downloads[0] 	179720
scalar three_caches_scenario_3_links_network.client[0] 	avg_time[0] 	0
scalar three_caches_scenario_3_links_network.client[0] 	interests_sent[0] 	179720
