version 2
run General-1431-20140425-16:23:39-13963
attr D costprob0.2
attr F nrr
attr R lru
attr a 0
attr configname General
attr csize 9
attr ctlg 10^3
attr datetime 20140425-16:23:39
attr experiment General
attr inifile omnetpp.ini
attr iterationvars "$net=one_cache_scenario, $rep=12, $priceratiovalue=10, $a=0, $ctlg=10^3, $F=nrr, $ttl=1000, $D=costprob0.2, $R=lru, $csize=9"
attr iterationvars2 "$net=one_cache_scenario, $rep=12, $priceratiovalue=10, $a=0, $ctlg=10^3, $F=nrr, $ttl=1000, $D=costprob0.2, $R=lru, $csize=9, $repetition=0"
attr measurement "$net=one_cache_scenario, $rep=12, $priceratiovalue=10, $a=0, $ctlg=10^3, $F=nrr, $ttl=1000, $D=costprob0.2, $R=lru, $csize=9"
attr net one_cache_scenario
attr network networks.${net=one_cache_scenario}_network
attr priceratiovalue 10
attr processid 13963
attr rep 12
attr repetition 0
attr replication #0
attr resultdir results
attr runnumber 1431
attr seedset 12
attr ttl 1000

scalar . 	a 	0
scalar . 	csize 	9
scalar . 	priceratiovalue 	10
scalar . 	rep 	12
scalar . 	ttl 	1000
scalar one_cache_scenario_network.content_distribution 	repo-0 	3
scalar one_cache_scenario_network.content_distribution 	repo-1 	4
scalar one_cache_scenario_network.content_distribution 	client-0 	0
scalar one_cache_scenario_network.content_distribution 	repo-0_card 	506
scalar one_cache_scenario_network.content_distribution 	repo-1_card 	494
scalar one_cache_scenario_network.statistics 	p_hit 	0.0030176827255382
scalar one_cache_scenario_network.statistics 	interests 	107234.6
scalar one_cache_scenario_network.statistics 	data 	71274
scalar one_cache_scenario_network.statistics 	hdistance 	1.9820025249857
scalar one_cache_scenario_network.statistics 	avg_time 	0
scalar one_cache_scenario_network.statistics 	downloads 	179803
scalar one_cache_scenario_network.statistics 	total_cost 	87326
scalar one_cache_scenario_network.statistics 	interests_sent 	179803
scalar one_cache_scenario_network.node[0].core_layer 	interests[0] 	179803
scalar one_cache_scenario_network.node[0].core_layer 	data[0] 	178185
scalar one_cache_scenario_network.node[0].core_layer 	repo_int[0] 	178185
scalar one_cache_scenario_network.node[0].content_store 	p_hit[0] 	0.0089987375071606
scalar one_cache_scenario_network.node[0].content_store 	hits[0] 	1618
scalar one_cache_scenario_network.node[0].content_store 	misses[0] 	178185
scalar one_cache_scenario_network.node[0].content_store 	decision_yes[0] 	17429
scalar one_cache_scenario_network.node[0].content_store 	decision_no[0] 	160756
scalar one_cache_scenario_network.node[1].core_layer 	interests[1] 	91250
scalar one_cache_scenario_network.node[1].core_layer 	data[1] 	91250
scalar one_cache_scenario_network.node[1].content_store 	p_hit[1] 	0
scalar one_cache_scenario_network.node[1].content_store 	hits[1] 	0
scalar one_cache_scenario_network.node[1].content_store 	misses[1] 	91250
scalar one_cache_scenario_network.node[1].content_store 	decision_yes[1] 	0
scalar one_cache_scenario_network.node[1].content_store 	decision_no[1] 	91250
scalar one_cache_scenario_network.node[2].core_layer 	interests[2] 	86935
scalar one_cache_scenario_network.node[2].core_layer 	data[2] 	86935
scalar one_cache_scenario_network.node[2].content_store 	p_hit[2] 	0
scalar one_cache_scenario_network.node[2].content_store 	hits[2] 	0
scalar one_cache_scenario_network.node[2].content_store 	misses[2] 	86935
scalar one_cache_scenario_network.node[2].content_store 	decision_yes[2] 	0
scalar one_cache_scenario_network.node[2].content_store 	decision_no[2] 	86935
scalar one_cache_scenario_network.node[3].core_layer 	interests[3] 	91250
scalar one_cache_scenario_network.node[3].core_layer 	repo_load[3] 	91250
scalar one_cache_scenario_network.node[3].core_layer 	data[3] 	0
scalar one_cache_scenario_network.node[3].content_store 	p_hit[3] 	0
scalar one_cache_scenario_network.node[3].content_store 	hits[3] 	0
scalar one_cache_scenario_network.node[3].content_store 	misses[3] 	91250
scalar one_cache_scenario_network.node[3].content_store 	decision_yes[3] 	0
scalar one_cache_scenario_network.node[3].content_store 	decision_no[3] 	91250
scalar one_cache_scenario_network.node[4].core_layer 	interests[4] 	86935
scalar one_cache_scenario_network.node[4].core_layer 	repo_load[4] 	86935
scalar one_cache_scenario_network.node[4].core_layer 	data[4] 	0
scalar one_cache_scenario_network.node[4].content_store 	p_hit[4] 	0
scalar one_cache_scenario_network.node[4].content_store 	hits[4] 	0
scalar one_cache_scenario_network.node[4].content_store 	misses[4] 	86935
scalar one_cache_scenario_network.node[4].content_store 	decision_yes[4] 	0
scalar one_cache_scenario_network.node[4].content_store 	decision_no[4] 	86935
scalar one_cache_scenario_network.client[0] 	hdistance[0] 	1.9820025249857
scalar one_cache_scenario_network.client[0] 	downloads[0] 	179803
scalar one_cache_scenario_network.client[0] 	avg_time[0] 	0
scalar one_cache_scenario_network.client[0] 	interests_sent[0] 	179803
