version 2
run General-20-20140625-18:23:36-12212
attr D costprobprodcorr0.01
attr F nrr
attr R lru
attr a 1
attr configname General
attr csize 1e3
attr ctlg 1e5
attr datetime 20140625-18:23:36
attr experiment General
attr inifile omnetpp.ini
attr iterationvars "$net=abilene_cost, $rep=1, $priceratiovalue=10, $weights=0.333_0.333_0.334, $lambda=100, $a=1, $ctlg=1e5, $F=nrr, $ttl=1000, $D=costprobprodcorr0.01, $xi=2, $R=lru, $csize=1e3, $pricebits=0, $mytime=1800"
attr iterationvars2 "$net=abilene_cost, $rep=1, $priceratiovalue=10, $weights=0.333_0.333_0.334, $lambda=100, $a=1, $ctlg=1e5, $F=nrr, $ttl=1000, $D=costprobprodcorr0.01, $xi=2, $R=lru, $csize=1e3, $pricebits=0, $mytime=1800, $repetition=0"
attr lambda 100
attr measurement "$net=abilene_cost, $rep=1, $priceratiovalue=10, $weights=0.333_0.333_0.334, $lambda=100, $a=1, $ctlg=1e5, $F=nrr, $ttl=1000, $D=costprobprodcorr0.01, $xi=2, $R=lru, $csize=1e3, $pricebits=0, $mytime=1800"
attr mytime 1800
attr net abilene_cost
attr network "networks.${net=geant_cost, abilene_cost}_network"
attr pricebits 0
attr priceratiovalue 10
attr processid 12212
attr rep 1
attr repetition 0
attr replication #0
attr resultdir results
attr runnumber 20
attr seedset 1
attr ttl 1000
attr weights 0.333_0.333_0.334
attr xi 2

scalar . 	a 	1
scalar . 	csize 	1e3
scalar . 	ctlg 	1e5
scalar . 	lambda 	100
scalar . 	mytime 	1800
scalar . 	pricebits 	0
scalar . 	priceratiovalue 	10
scalar . 	rep 	1
scalar . 	ttl 	1000
scalar . 	xi 	2
scalar abilene_cost_network.content_distribution 	repo-0 	11
scalar abilene_cost_network.content_distribution 	repo-1 	12
scalar abilene_cost_network.content_distribution 	repo-2 	13
scalar abilene_cost_network.content_distribution 	client-0 	5
scalar abilene_cost_network.content_distribution 	client-1 	0
scalar abilene_cost_network.content_distribution 	client-2 	9
scalar abilene_cost_network.content_distribution 	repo-0_card 	33396
scalar abilene_cost_network.content_distribution 	repo-1_card 	33039
scalar abilene_cost_network.content_distribution 	repo-2_card 	33565
scalar abilene_cost_network.statistics 	repo_popularity[0] 	0.28686251265602
scalar abilene_cost_network.statistics 	repo_popularity[1] 	0.2886063426465
scalar abilene_cost_network.statistics 	repo_popularity[2] 	0.42453114469748
scalar abilene_cost_network.statistics 	stabilization_time 	16750.7
scalar abilene_cost_network.node[1].face$o[4].channel 	price[1] 	0
scalar abilene_cost_network.node[1].face$o[4].channel 	represented_price[1] 	0
scalar abilene_cost_network.node[7].face$o[4].channel 	price[7] 	0
scalar abilene_cost_network.node[7].face$o[4].channel 	represented_price[7] 	0
scalar abilene_cost_network.node[10].face$o[4].channel 	price[10] 	0
scalar abilene_cost_network.node[10].face$o[4].channel 	represented_price[10] 	0
scalar abilene_cost_network.node[11].face$o[1].channel 	price[11] 	0
scalar abilene_cost_network.node[11].face$o[1].channel 	represented_price[11] 	0
scalar abilene_cost_network.node[12].face$o[1].channel 	price[12] 	1
scalar abilene_cost_network.node[12].face$o[1].channel 	represented_price[12] 	1
scalar abilene_cost_network.node[13].face$o[1].channel 	price[13] 	10
scalar abilene_cost_network.node[13].face$o[1].channel 	represented_price[13] 	10
scalar abilene_cost_network.statistics 	p_hit 	0.10963164283126
scalar abilene_cost_network.statistics 	interests 	148648.42857143
scalar abilene_cost_network.statistics 	data 	110079.5
scalar abilene_cost_network.statistics 	hdistance 	3.4713398786178
scalar abilene_cost_network.statistics 	avg_time 	0.015211747394
scalar abilene_cost_network.statistics 	downloads 	531686
scalar abilene_cost_network.statistics 	total_cost 	781190
scalar abilene_cost_network.statistics 	total_replicas 	100000
scalar abilene_cost_network.statistics 	inner_hit 	0.42961259089011
scalar abilene_cost_network.statistics 	interests_sent 	539975
scalar abilene_cost_network.node[0].core_layer 	interests[0] 	195407
scalar abilene_cost_network.node[0].core_layer 	data[0] 	166397
scalar abilene_cost_network.node[0].core_layer 	repo_int[0] 	303267
scalar abilene_cost_network.node[0].content_store 	p_hit[0] 	0.13605449139488
scalar abilene_cost_network.node[0].content_store 	hits[0] 	26586
scalar abilene_cost_network.node[0].content_store 	misses[0] 	168821
scalar abilene_cost_network.node[0].content_store 	decision_yes[0] 	752
scalar abilene_cost_network.node[0].content_store 	decision_no[0] 	165645
scalar abilene_cost_network.node[0].content_store 	decision_ratio[0] 	0.004519312247216
scalar abilene_cost_network.node[0].content_store 	correction_factor[0] 	0.00029644561705155
scalar abilene_cost_network.node[0].content_store 	xi[0] 	2
scalar abilene_cost_network.node[1].core_layer 	interests[1] 	252029
scalar abilene_cost_network.node[1].core_layer 	data[1] 	188875
scalar abilene_cost_network.node[1].content_store 	p_hit[1] 	0.25058624205945
scalar abilene_cost_network.node[1].content_store 	hits[1] 	63155
scalar abilene_cost_network.node[1].content_store 	misses[1] 	188874
scalar abilene_cost_network.node[1].content_store 	decision_yes[1] 	2138
scalar abilene_cost_network.node[1].content_store 	decision_no[1] 	186737
scalar abilene_cost_network.node[1].content_store 	decision_ratio[1] 	0.011319655857048
scalar abilene_cost_network.node[1].content_store 	correction_factor[1] 	0.00029644561705155
scalar abilene_cost_network.node[1].content_store 	xi[1] 	2
scalar abilene_cost_network.node[2].core_layer 	interests[2] 	192671
scalar abilene_cost_network.node[2].core_layer 	data[2] 	159872
scalar abilene_cost_network.node[2].content_store 	p_hit[2] 	0.16888374482927
scalar abilene_cost_network.node[2].content_store 	hits[2] 	32539
scalar abilene_cost_network.node[2].content_store 	misses[2] 	160132
scalar abilene_cost_network.node[2].content_store 	decision_yes[2] 	663
scalar abilene_cost_network.node[2].content_store 	decision_no[2] 	159209
scalar abilene_cost_network.node[2].content_store 	decision_ratio[2] 	0.0041470676541233
scalar abilene_cost_network.node[2].content_store 	correction_factor[2] 	0.00029644561705155
scalar abilene_cost_network.node[2].content_store 	xi[2] 	2
scalar abilene_cost_network.node[3].core_layer 	interests[3] 	180804
scalar abilene_cost_network.node[3].core_layer 	data[3] 	146647
scalar abilene_cost_network.node[3].content_store 	p_hit[3] 	0.18892281144222
scalar abilene_cost_network.node[3].content_store 	hits[3] 	34158
scalar abilene_cost_network.node[3].content_store 	misses[3] 	146646
scalar abilene_cost_network.node[3].content_store 	decision_yes[3] 	680
scalar abilene_cost_network.node[3].content_store 	decision_no[3] 	145967
scalar abilene_cost_network.node[3].content_store 	decision_ratio[3] 	0.0046369854139532
scalar abilene_cost_network.node[3].content_store 	correction_factor[3] 	0.00029644561705155
scalar abilene_cost_network.node[3].content_store 	xi[3] 	2
scalar abilene_cost_network.node[4].core_layer 	interests[4] 	128873
scalar abilene_cost_network.node[4].core_layer 	data[4] 	121962
scalar abilene_cost_network.node[4].content_store 	p_hit[4] 	0.053634198008892
scalar abilene_cost_network.node[4].content_store 	hits[4] 	6912
scalar abilene_cost_network.node[4].content_store 	misses[4] 	121961
scalar abilene_cost_network.node[4].content_store 	decision_yes[4] 	706
scalar abilene_cost_network.node[4].content_store 	decision_no[4] 	121256
scalar abilene_cost_network.node[4].content_store 	decision_ratio[4] 	0.0057886882799561
scalar abilene_cost_network.node[4].content_store 	correction_factor[4] 	0.00029644561705155
scalar abilene_cost_network.node[4].content_store 	xi[4] 	2
scalar abilene_cost_network.node[5].core_layer 	interests[5] 	183695
scalar abilene_cost_network.node[5].core_layer 	data[5] 	168826
scalar abilene_cost_network.node[5].content_store 	p_hit[5] 	0.064149813549634
scalar abilene_cost_network.node[5].content_store 	hits[5] 	11784
scalar abilene_cost_network.node[5].content_store 	misses[5] 	171911
scalar abilene_cost_network.node[5].content_store 	decision_yes[5] 	690
scalar abilene_cost_network.node[5].content_store 	decision_no[5] 	168136
scalar abilene_cost_network.node[5].content_store 	decision_ratio[5] 	0.0040870482034758
scalar abilene_cost_network.node[5].content_store 	correction_factor[5] 	0.00029644561705155
scalar abilene_cost_network.node[5].content_store 	xi[5] 	2
scalar abilene_cost_network.node[6].core_layer 	interests[6] 	48764
scalar abilene_cost_network.node[6].core_layer 	data[6] 	42622
scalar abilene_cost_network.node[6].content_store 	p_hit[6] 	0.12597407923878
scalar abilene_cost_network.node[6].content_store 	hits[6] 	6143
scalar abilene_cost_network.node[6].content_store 	misses[6] 	42621
scalar abilene_cost_network.node[6].content_store 	decision_yes[6] 	6
scalar abilene_cost_network.node[6].content_store 	decision_no[6] 	42616
scalar abilene_cost_network.node[6].content_store 	decision_ratio[6] 	0.00014077237107597
scalar abilene_cost_network.node[6].content_store 	correction_factor[6] 	0.00029644561705155
scalar abilene_cost_network.node[6].content_store 	xi[6] 	2
scalar abilene_cost_network.node[7].core_layer 	interests[7] 	114024
scalar abilene_cost_network.node[7].core_layer 	data[7] 	91895
scalar abilene_cost_network.node[7].content_store 	p_hit[7] 	0.19406440749316
scalar abilene_cost_network.node[7].content_store 	hits[7] 	22128
scalar abilene_cost_network.node[7].content_store 	misses[7] 	91896
scalar abilene_cost_network.node[7].content_store 	decision_yes[7] 	17
scalar abilene_cost_network.node[7].content_store 	decision_no[7] 	91878
scalar abilene_cost_network.node[7].content_store 	decision_ratio[7] 	0.0001849937428587
scalar abilene_cost_network.node[7].content_store 	correction_factor[7] 	0.00029644561705155
scalar abilene_cost_network.node[7].content_store 	xi[7] 	2
scalar abilene_cost_network.node[8].core_layer 	interests[8] 	70754
scalar abilene_cost_network.node[8].core_layer 	data[8] 	65623
scalar abilene_cost_network.node[8].content_store 	p_hit[8] 	0.072518868191198
scalar abilene_cost_network.node[8].content_store 	hits[8] 	5131
scalar abilene_cost_network.node[8].content_store 	misses[8] 	65623
scalar abilene_cost_network.node[8].content_store 	decision_yes[8] 	8
scalar abilene_cost_network.node[8].content_store 	decision_no[8] 	65615
scalar abilene_cost_network.node[8].content_store 	decision_ratio[8] 	0.00012190847721073
scalar abilene_cost_network.node[8].content_store 	correction_factor[8] 	0.00029644561705155
scalar abilene_cost_network.node[8].content_store 	xi[8] 	2
scalar abilene_cost_network.node[9].core_layer 	interests[9] 	190150
scalar abilene_cost_network.node[9].core_layer 	data[9] 	172740
scalar abilene_cost_network.node[9].content_store 	p_hit[9] 	0.076939258480147
scalar abilene_cost_network.node[9].content_store 	hits[9] 	14630
scalar abilene_cost_network.node[9].content_store 	misses[9] 	175520
scalar abilene_cost_network.node[9].content_store 	decision_yes[9] 	694
scalar abilene_cost_network.node[9].content_store 	decision_no[9] 	172046
scalar abilene_cost_network.node[9].content_store 	decision_ratio[9] 	0.0040175987032534
scalar abilene_cost_network.node[9].content_store 	correction_factor[9] 	0.00029644561705155
scalar abilene_cost_network.node[9].content_store 	xi[9] 	2
scalar abilene_cost_network.node[10].core_layer 	interests[10] 	220640
scalar abilene_cost_network.node[10].core_layer 	data[10] 	215654
scalar abilene_cost_network.node[10].content_store 	p_hit[10] 	0.022597897026831
scalar abilene_cost_network.node[10].content_store 	hits[10] 	4986
scalar abilene_cost_network.node[10].content_store 	misses[10] 	215654
scalar abilene_cost_network.node[10].content_store 	decision_yes[10] 	663
scalar abilene_cost_network.node[10].content_store 	decision_no[10] 	214991
scalar abilene_cost_network.node[10].content_store 	decision_ratio[10] 	0.0030743691283259
scalar abilene_cost_network.node[10].content_store 	correction_factor[10] 	0.00029644561705155
scalar abilene_cost_network.node[10].content_store 	xi[10] 	2
scalar abilene_cost_network.node[11].core_layer 	interests[11] 	154147
scalar abilene_cost_network.node[11].core_layer 	repo_load[11] 	154147
scalar abilene_cost_network.node[11].core_layer 	data[11] 	0
scalar abilene_cost_network.node[11].content_store 	p_hit[11] 	0
scalar abilene_cost_network.node[11].content_store 	hits[11] 	0
scalar abilene_cost_network.node[11].content_store 	misses[11] 	154147
scalar abilene_cost_network.node[11].content_store 	decision_yes[11] 	0
scalar abilene_cost_network.node[11].content_store 	decision_no[11] 	154147
scalar abilene_cost_network.node[11].content_store 	decision_ratio[11] 	0
scalar abilene_cost_network.node[12].core_layer 	interests[12] 	78890
scalar abilene_cost_network.node[12].core_layer 	repo_load[12] 	78890
scalar abilene_cost_network.node[12].core_layer 	data[12] 	0
scalar abilene_cost_network.node[12].content_store 	p_hit[12] 	0
scalar abilene_cost_network.node[12].content_store 	hits[12] 	0
scalar abilene_cost_network.node[12].content_store 	misses[12] 	78890
scalar abilene_cost_network.node[12].content_store 	decision_yes[12] 	0
scalar abilene_cost_network.node[12].content_store 	decision_no[12] 	78890
scalar abilene_cost_network.node[12].content_store 	decision_ratio[12] 	0
scalar abilene_cost_network.node[13].core_layer 	interests[13] 	70230
scalar abilene_cost_network.node[13].core_layer 	repo_load[13] 	70230
scalar abilene_cost_network.node[13].core_layer 	data[13] 	0
scalar abilene_cost_network.node[13].content_store 	p_hit[13] 	0
scalar abilene_cost_network.node[13].content_store 	hits[13] 	0
scalar abilene_cost_network.node[13].content_store 	misses[13] 	70230
scalar abilene_cost_network.node[13].content_store 	decision_yes[13] 	0
scalar abilene_cost_network.node[13].content_store 	decision_no[13] 	70230
scalar abilene_cost_network.node[13].content_store 	decision_ratio[13] 	0
scalar abilene_cost_network.client[0] 	hdistance[0] 	2.975794498391
scalar abilene_cost_network.client[0] 	downloads[0] 	177439
scalar abilene_cost_network.client[0] 	avg_time[0] 	0.013746676926
scalar abilene_cost_network.client[0] 	interests_sent[0] 	179863
scalar abilene_cost_network.client[5] 	hdistance[5] 	4.5576813104062
scalar abilene_cost_network.client[5] 	downloads[5] 	176617
scalar abilene_cost_network.client[5] 	avg_time[5] 	0.01863836967
scalar abilene_cost_network.client[5] 	interests_sent[5] 	179702
scalar abilene_cost_network.client[9] 	hdistance[9] 	2.8805438270562
scalar abilene_cost_network.client[9] 	downloads[9] 	177630
scalar abilene_cost_network.client[9] 	avg_time[9] 	0.013250195587
scalar abilene_cost_network.client[9] 	interests_sent[9] 	180410
