version 2
run General-2658-20140502-06:09:55-11614
attr D costprob0.05
attr F nrr
attr R lru
attr a 1.2
attr configname General
attr csize 1e3
attr ctlg 1e5
attr datetime 20140502-06:09:55
attr experiment General
attr inifile omnetpp.ini
attr iterationvars "$net=three_caches_scenario_3_links, $rep=5, $priceratiovalue=5, $weights=0.2_0.4_0.4, $a=1.2, $ctlg=1e5, $F=nrr, $ttl=1000, $D=costprob0.05, $xi=1, $R=lru, $csize=1e3"
attr iterationvars2 "$net=three_caches_scenario_3_links, $rep=5, $priceratiovalue=5, $weights=0.2_0.4_0.4, $a=1.2, $ctlg=1e5, $F=nrr, $ttl=1000, $D=costprob0.05, $xi=1, $R=lru, $csize=1e3, $repetition=0"
attr measurement "$net=three_caches_scenario_3_links, $rep=5, $priceratiovalue=5, $weights=0.2_0.4_0.4, $a=1.2, $ctlg=1e5, $F=nrr, $ttl=1000, $D=costprob0.05, $xi=1, $R=lru, $csize=1e3"
attr net three_caches_scenario_3_links
attr network networks.${net=three_caches_scenario_3_links}_network
attr priceratiovalue 5
attr processid 11614
attr rep 5
attr repetition 0
attr replication #0
attr resultdir results
attr runnumber 2658
attr seedset 5
attr ttl 1000
attr weights 0.2_0.4_0.4
attr xi 1

scalar . 	a 	1.2
scalar . 	csize 	1e3
scalar . 	ctlg 	1e5
scalar . 	priceratiovalue 	5
scalar . 	rep 	5
scalar . 	ttl 	1000
scalar . 	xi 	1
scalar three_caches_scenario_3_links_network.content_distribution 	repo-0 	4
scalar three_caches_scenario_3_links_network.content_distribution 	repo-1 	5
scalar three_caches_scenario_3_links_network.content_distribution 	repo-2 	6
scalar three_caches_scenario_3_links_network.content_distribution 	client-0 	0
scalar three_caches_scenario_3_links_network.content_distribution 	repo-0_card 	19937
scalar three_caches_scenario_3_links_network.content_distribution 	repo-1_card 	40032
scalar three_caches_scenario_3_links_network.content_distribution 	repo-2_card 	40031
scalar three_caches_scenario_3_links_network.statistics 	p_hit 	0.15933733345301
scalar three_caches_scenario_3_links_network.statistics 	interests 	62069.571428571
scalar three_caches_scenario_3_links_network.statistics 	data 	36277.857142857
scalar three_caches_scenario_3_links_network.statistics 	hdistance 	1.5458619047092
scalar three_caches_scenario_3_links_network.statistics 	avg_time 	0
scalar three_caches_scenario_3_links_network.statistics 	downloads 	180542
scalar three_caches_scenario_3_links_network.statistics 	total_cost 	73060
scalar three_caches_scenario_3_links_network.statistics 	total_replicas 	100000
scalar three_caches_scenario_3_links_network.statistics 	interests_sent 	180542
scalar three_caches_scenario_3_links_network.node[0].core_layer 	interests[0] 	180542
scalar three_caches_scenario_3_links_network.node[0].core_layer 	data[0] 	142633
scalar three_caches_scenario_3_links_network.node[0].core_layer 	repo_int[0] 	111312
scalar three_caches_scenario_3_links_network.node[0].content_store 	p_hit[0] 	0.20997330261103
scalar three_caches_scenario_3_links_network.node[0].content_store 	hits[0] 	37909
scalar three_caches_scenario_3_links_network.node[0].content_store 	misses[0] 	142633
scalar three_caches_scenario_3_links_network.node[0].content_store 	decision_yes[0] 	1514
scalar three_caches_scenario_3_links_network.node[0].content_store 	decision_no[0] 	141119
scalar three_caches_scenario_3_links_network.node[1].core_layer 	interests[1] 	86164
scalar three_caches_scenario_3_links_network.node[1].core_layer 	data[1] 	86164
scalar three_caches_scenario_3_links_network.node[1].content_store 	p_hit[1] 	0
scalar three_caches_scenario_3_links_network.node[1].content_store 	hits[1] 	0
scalar three_caches_scenario_3_links_network.node[1].content_store 	misses[1] 	86164
scalar three_caches_scenario_3_links_network.node[1].content_store 	decision_yes[1] 	0
scalar three_caches_scenario_3_links_network.node[1].content_store 	decision_no[1] 	86164
scalar three_caches_scenario_3_links_network.node[2].core_layer 	interests[2] 	27739
scalar three_caches_scenario_3_links_network.node[2].core_layer 	data[2] 	13170
scalar three_caches_scenario_3_links_network.node[2].content_store 	p_hit[2] 	0.52521720321569
scalar three_caches_scenario_3_links_network.node[2].content_store 	hits[2] 	14569
scalar three_caches_scenario_3_links_network.node[2].content_store 	misses[2] 	13170
scalar three_caches_scenario_3_links_network.node[2].content_store 	decision_yes[2] 	256
scalar three_caches_scenario_3_links_network.node[2].content_store 	decision_no[2] 	12914
scalar three_caches_scenario_3_links_network.node[3].core_layer 	interests[3] 	28730
scalar three_caches_scenario_3_links_network.node[3].core_layer 	data[3] 	11978
scalar three_caches_scenario_3_links_network.node[3].content_store 	p_hit[3] 	0.58308388444135
scalar three_caches_scenario_3_links_network.node[3].content_store 	hits[3] 	16752
scalar three_caches_scenario_3_links_network.node[3].content_store 	misses[3] 	11978
scalar three_caches_scenario_3_links_network.node[3].content_store 	decision_yes[3] 	1217
scalar three_caches_scenario_3_links_network.node[3].content_store 	decision_no[3] 	10761
scalar three_caches_scenario_3_links_network.node[4].core_layer 	interests[4] 	86164
scalar three_caches_scenario_3_links_network.node[4].core_layer 	repo_load[4] 	86164
scalar three_caches_scenario_3_links_network.node[4].core_layer 	data[4] 	0
scalar three_caches_scenario_3_links_network.node[4].content_store 	p_hit[4] 	0
scalar three_caches_scenario_3_links_network.node[4].content_store 	hits[4] 	0
scalar three_caches_scenario_3_links_network.node[4].content_store 	misses[4] 	86164
scalar three_caches_scenario_3_links_network.node[4].content_store 	decision_yes[4] 	0
scalar three_caches_scenario_3_links_network.node[4].content_store 	decision_no[4] 	86164
scalar three_caches_scenario_3_links_network.node[5].core_layer 	interests[5] 	13170
scalar three_caches_scenario_3_links_network.node[5].core_layer 	repo_load[5] 	13170
scalar three_caches_scenario_3_links_network.node[5].core_layer 	data[5] 	0
scalar three_caches_scenario_3_links_network.node[5].content_store 	p_hit[5] 	0
scalar three_caches_scenario_3_links_network.node[5].content_store 	hits[5] 	0
scalar three_caches_scenario_3_links_network.node[5].content_store 	misses[5] 	13170
scalar three_caches_scenario_3_links_network.node[5].content_store 	decision_yes[5] 	0
scalar three_caches_scenario_3_links_network.node[5].content_store 	decision_no[5] 	13170
scalar three_caches_scenario_3_links_network.node[6].core_layer 	interests[6] 	11978
scalar three_caches_scenario_3_links_network.node[6].core_layer 	repo_load[6] 	11978
scalar three_caches_scenario_3_links_network.node[6].core_layer 	data[6] 	0
scalar three_caches_scenario_3_links_network.node[6].content_store 	p_hit[6] 	0
scalar three_caches_scenario_3_links_network.node[6].content_store 	hits[6] 	0
scalar three_caches_scenario_3_links_network.node[6].content_store 	misses[6] 	11978
scalar three_caches_scenario_3_links_network.node[6].content_store 	decision_yes[6] 	0
scalar three_caches_scenario_3_links_network.node[6].content_store 	decision_no[6] 	11978
scalar three_caches_scenario_3_links_network.client[0] 	hdistance[0] 	1.5458619047092
scalar three_caches_scenario_3_links_network.client[0] 	downloads[0] 	180542
scalar three_caches_scenario_3_links_network.client[0] 	avg_time[0] 	0
scalar three_caches_scenario_3_links_network.client[0] 	interests_sent[0] 	180542
