version 2
run General-0-20140626-12:33:05-15734
attr D costprobprodcorr0.01
attr F nrr
attr R lru
attr a 1
attr configname General
attr csize 1e3
attr ctlg 1e5
attr datetime 20140626-12:33:05
attr experiment General
attr inifile omnetpp.ini
attr iterationvars "$net=abilene_cost, $rep=1, $priceratiovalue=10, $weights=0.333_0.333_0.334, $lambda=100, $a=1, $ctlg=1e5, $F=nrr, $ttl=1000, $D=costprobprodcorr0.01, $xi=0.25, $R=lru, $csize=1e3, $pricebits=0, $mytime=1800"
attr iterationvars2 "$net=abilene_cost, $rep=1, $priceratiovalue=10, $weights=0.333_0.333_0.334, $lambda=100, $a=1, $ctlg=1e5, $F=nrr, $ttl=1000, $D=costprobprodcorr0.01, $xi=0.25, $R=lru, $csize=1e3, $pricebits=0, $mytime=1800, $repetition=0"
attr lambda 100
attr measurement "$net=abilene_cost, $rep=1, $priceratiovalue=10, $weights=0.333_0.333_0.334, $lambda=100, $a=1, $ctlg=1e5, $F=nrr, $ttl=1000, $D=costprobprodcorr0.01, $xi=0.25, $R=lru, $csize=1e3, $pricebits=0, $mytime=1800"
attr mytime 1800
attr net abilene_cost
attr network networks.${net=abilene_cost}_network
attr pricebits 0
attr priceratiovalue 10
attr processid 15734
attr rep 1
attr repetition 0
attr replication #0
attr resultdir results
attr runnumber 0
attr seedset 1
attr ttl 1000
attr weights 0.333_0.333_0.334
attr xi 0.25

scalar . 	a 	1
scalar . 	csize 	1e3
scalar . 	ctlg 	1e5
scalar . 	lambda 	100
scalar . 	mytime 	1800
scalar . 	pricebits 	0
scalar . 	priceratiovalue 	10
scalar . 	rep 	1
scalar . 	ttl 	1000
scalar . 	xi 	0.25
scalar abilene_cost_network.content_distribution 	repo-0 	11
scalar abilene_cost_network.content_distribution 	repo-1 	12
scalar abilene_cost_network.content_distribution 	repo-2 	13
scalar abilene_cost_network.content_distribution 	client-0 	5
scalar abilene_cost_network.content_distribution 	client-1 	0
scalar abilene_cost_network.content_distribution 	client-2 	9
scalar abilene_cost_network.content_distribution 	repo-0_card 	33396
scalar abilene_cost_network.content_distribution 	repo-1_card 	33039
scalar abilene_cost_network.content_distribution 	repo-2_card 	33565
scalar abilene_cost_network.statistics 	repo_popularity[0] 	0.28686251265602
scalar abilene_cost_network.statistics 	repo_popularity[1] 	0.2886063426465
scalar abilene_cost_network.statistics 	repo_popularity[2] 	0.42453114469748
scalar abilene_cost_network.statistics 	stabilization_time 	689.8
scalar abilene_cost_network.node[1].face$o[4].channel 	price[1] 	0
scalar abilene_cost_network.node[1].face$o[4].channel 	represented_price[1] 	0
scalar abilene_cost_network.node[7].face$o[4].channel 	price[7] 	0
scalar abilene_cost_network.node[7].face$o[4].channel 	represented_price[7] 	0
scalar abilene_cost_network.node[10].face$o[4].channel 	price[10] 	0
scalar abilene_cost_network.node[10].face$o[4].channel 	represented_price[10] 	0
scalar abilene_cost_network.node[11].face$o[1].channel 	price[11] 	0
scalar abilene_cost_network.node[11].face$o[1].channel 	represented_price[11] 	0
scalar abilene_cost_network.node[12].face$o[1].channel 	price[12] 	1
scalar abilene_cost_network.node[12].face$o[1].channel 	represented_price[12] 	1
scalar abilene_cost_network.node[13].face$o[1].channel 	price[13] 	10
scalar abilene_cost_network.node[13].face$o[1].channel 	represented_price[13] 	10
scalar abilene_cost_network.statistics 	p_hit 	0.11187495156809
scalar abilene_cost_network.statistics 	interests 	148404.21428571
scalar abilene_cost_network.statistics 	data 	109888.21428571
scalar abilene_cost_network.statistics 	hdistance 	3.4602348443893
scalar abilene_cost_network.statistics 	avg_time 	0.015147520928
scalar abilene_cost_network.statistics 	downloads 	530901
scalar abilene_cost_network.statistics 	total_cost 	808995
scalar abilene_cost_network.statistics 	total_replicas 	100000
scalar abilene_cost_network.statistics 	inner_hit 	0.4382530829665
scalar abilene_cost_network.statistics 	interests_sent 	539234
scalar abilene_cost_network.node[0].core_layer 	interests[0] 	194003
scalar abilene_cost_network.node[0].core_layer 	data[0] 	166886
scalar abilene_cost_network.node[0].core_layer 	repo_int[0] 	298232
scalar abilene_cost_network.node[0].content_store 	p_hit[0] 	0.12796193873291
scalar abilene_cost_network.node[0].content_store 	hits[0] 	24825
scalar abilene_cost_network.node[0].content_store 	misses[0] 	169178
scalar abilene_cost_network.node[0].content_store 	decision_yes[0] 	768
scalar abilene_cost_network.node[0].content_store 	decision_no[0] 	166118
scalar abilene_cost_network.node[0].content_store 	decision_ratio[0] 	0.0046019438419041
scalar abilene_cost_network.node[0].content_store 	correction_factor[0] 	0.010788122829233
scalar abilene_cost_network.node[0].content_store 	xi[0] 	0.25
scalar abilene_cost_network.node[1].core_layer 	interests[1] 	261082
scalar abilene_cost_network.node[1].core_layer 	data[1] 	185590
scalar abilene_cost_network.node[1].content_store 	p_hit[1] 	0.28916202572372
scalar abilene_cost_network.node[1].content_store 	hits[1] 	75495
scalar abilene_cost_network.node[1].content_store 	misses[1] 	185587
scalar abilene_cost_network.node[1].content_store 	decision_yes[1] 	1679
scalar abilene_cost_network.node[1].content_store 	decision_no[1] 	183911
scalar abilene_cost_network.node[1].content_store 	decision_ratio[1] 	0.0090468236435153
scalar abilene_cost_network.node[1].content_store 	correction_factor[1] 	0.010788122829233
scalar abilene_cost_network.node[1].content_store 	xi[1] 	0.25
scalar abilene_cost_network.node[2].core_layer 	interests[2] 	190520
scalar abilene_cost_network.node[2].core_layer 	data[2] 	162682
scalar abilene_cost_network.node[2].content_store 	p_hit[2] 	0.14491916859122
scalar abilene_cost_network.node[2].content_store 	hits[2] 	27610
scalar abilene_cost_network.node[2].content_store 	misses[2] 	162910
scalar abilene_cost_network.node[2].content_store 	decision_yes[2] 	693
scalar abilene_cost_network.node[2].content_store 	decision_no[2] 	161988
scalar abilene_cost_network.node[2].content_store 	decision_ratio[2] 	0.0042598705441939
scalar abilene_cost_network.node[2].content_store 	correction_factor[2] 	0.010788122829233
scalar abilene_cost_network.node[2].content_store 	xi[2] 	0.25
scalar abilene_cost_network.node[3].core_layer 	interests[3] 	181956
scalar abilene_cost_network.node[3].core_layer 	data[3] 	148248
scalar abilene_cost_network.node[3].content_store 	p_hit[3] 	0.18526456945635
scalar abilene_cost_network.node[3].content_store 	hits[3] 	33710
scalar abilene_cost_network.node[3].content_store 	misses[3] 	148246
scalar abilene_cost_network.node[3].content_store 	decision_yes[3] 	693
scalar abilene_cost_network.node[3].content_store 	decision_no[3] 	147555
scalar abilene_cost_network.node[3].content_store 	decision_ratio[3] 	0.0046745993200583
scalar abilene_cost_network.node[3].content_store 	correction_factor[3] 	0.010788122829233
scalar abilene_cost_network.node[3].content_store 	xi[3] 	0.25
scalar abilene_cost_network.node[4].core_layer 	interests[4] 	134730
scalar abilene_cost_network.node[4].core_layer 	data[4] 	127141
scalar abilene_cost_network.node[4].content_store 	p_hit[4] 	0.056342314258146
scalar abilene_cost_network.node[4].content_store 	hits[4] 	7591
scalar abilene_cost_network.node[4].content_store 	misses[4] 	127139
scalar abilene_cost_network.node[4].content_store 	decision_yes[4] 	463
scalar abilene_cost_network.node[4].content_store 	decision_no[4] 	126678
scalar abilene_cost_network.node[4].content_store 	decision_ratio[4] 	0.0036416262260011
scalar abilene_cost_network.node[4].content_store 	correction_factor[4] 	0.010788122829233
scalar abilene_cost_network.node[4].content_store 	xi[4] 	0.25
scalar abilene_cost_network.node[5].core_layer 	interests[5] 	183860
scalar abilene_cost_network.node[5].core_layer 	data[5] 	172318
scalar abilene_cost_network.node[5].content_store 	p_hit[5] 	0.045447623191559
scalar abilene_cost_network.node[5].content_store 	hits[5] 	8356
scalar abilene_cost_network.node[5].content_store 	misses[5] 	175504
scalar abilene_cost_network.node[5].content_store 	decision_yes[5] 	693
scalar abilene_cost_network.node[5].content_store 	decision_no[5] 	171625
scalar abilene_cost_network.node[5].content_store 	decision_ratio[5] 	0.0040216344200838
scalar abilene_cost_network.node[5].content_store 	correction_factor[5] 	0.010788122829233
scalar abilene_cost_network.node[5].content_store 	xi[5] 	0.25
scalar abilene_cost_network.node[6].core_layer 	interests[6] 	47025
scalar abilene_cost_network.node[6].core_layer 	data[6] 	39774
scalar abilene_cost_network.node[6].content_store 	p_hit[6] 	0.15417331206805
scalar abilene_cost_network.node[6].content_store 	hits[6] 	7250
scalar abilene_cost_network.node[6].content_store 	misses[6] 	39775
scalar abilene_cost_network.node[6].content_store 	decision_yes[6] 	225
scalar abilene_cost_network.node[6].content_store 	decision_no[6] 	39549
scalar abilene_cost_network.node[6].content_store 	decision_ratio[6] 	0.0056569618343642
scalar abilene_cost_network.node[6].content_store 	correction_factor[6] 	0.010788122829233
scalar abilene_cost_network.node[6].content_store 	xi[6] 	0.25
scalar abilene_cost_network.node[7].core_layer 	interests[7] 	102782
scalar abilene_cost_network.node[7].core_layer 	data[7] 	84554
scalar abilene_cost_network.node[7].content_store 	p_hit[7] 	0.17734622793874
scalar abilene_cost_network.node[7].content_store 	hits[7] 	18228
scalar abilene_cost_network.node[7].content_store 	misses[7] 	84554
scalar abilene_cost_network.node[7].content_store 	decision_yes[7] 	763
scalar abilene_cost_network.node[7].content_store 	decision_no[7] 	83791
scalar abilene_cost_network.node[7].content_store 	decision_ratio[7] 	0.0090238190978546
scalar abilene_cost_network.node[7].content_store 	correction_factor[7] 	0.010788122829233
scalar abilene_cost_network.node[7].content_store 	xi[7] 	0.25
scalar abilene_cost_network.node[8].core_layer 	interests[8] 	66483
scalar abilene_cost_network.node[8].core_layer 	data[8] 	60724
scalar abilene_cost_network.node[8].content_store 	p_hit[8] 	0.08663868958982
scalar abilene_cost_network.node[8].content_store 	hits[8] 	5760
scalar abilene_cost_network.node[8].content_store 	misses[8] 	60723
scalar abilene_cost_network.node[8].content_store 	decision_yes[8] 	233
scalar abilene_cost_network.node[8].content_store 	decision_no[8] 	60491
scalar abilene_cost_network.node[8].content_store 	decision_ratio[8] 	0.0038370331335222
scalar abilene_cost_network.node[8].content_store 	correction_factor[8] 	0.010788122829233
scalar abilene_cost_network.node[8].content_store 	xi[8] 	0.25
scalar abilene_cost_network.node[9].core_layer 	interests[9] 	190626
scalar abilene_cost_network.node[9].core_layer 	data[9] 	170423
scalar abilene_cost_network.node[9].content_store 	p_hit[9] 	0.09100542423384
scalar abilene_cost_network.node[9].content_store 	hits[9] 	17348
scalar abilene_cost_network.node[9].content_store 	misses[9] 	173278
scalar abilene_cost_network.node[9].content_store 	decision_yes[9] 	706
scalar abilene_cost_network.node[9].content_store 	decision_no[9] 	169717
scalar abilene_cost_network.node[9].content_store 	decision_ratio[9] 	0.0041426333300083
scalar abilene_cost_network.node[9].content_store 	correction_factor[9] 	0.010788122829233
scalar abilene_cost_network.node[9].content_store 	xi[9] 	0.25
scalar abilene_cost_network.node[10].core_layer 	interests[10] 	226360
scalar abilene_cost_network.node[10].core_layer 	data[10] 	220095
scalar abilene_cost_network.node[10].content_store 	p_hit[10] 	0.027677151440184
scalar abilene_cost_network.node[10].content_store 	hits[10] 	6265
scalar abilene_cost_network.node[10].content_store 	misses[10] 	220095
scalar abilene_cost_network.node[10].content_store 	decision_yes[10] 	407
scalar abilene_cost_network.node[10].content_store 	decision_no[10] 	219688
scalar abilene_cost_network.node[10].content_store 	decision_ratio[10] 	0.0018492014811786
scalar abilene_cost_network.node[10].content_store 	correction_factor[10] 	0.010788122829233
scalar abilene_cost_network.node[10].content_store 	xi[10] 	0.25
scalar abilene_cost_network.node[11].core_layer 	interests[11] 	154157
scalar abilene_cost_network.node[11].core_layer 	repo_load[11] 	154157
scalar abilene_cost_network.node[11].core_layer 	data[11] 	0
scalar abilene_cost_network.node[11].content_store 	p_hit[11] 	0
scalar abilene_cost_network.node[11].content_store 	hits[11] 	0
scalar abilene_cost_network.node[11].content_store 	misses[11] 	154157
scalar abilene_cost_network.node[11].content_store 	decision_yes[11] 	0
scalar abilene_cost_network.node[11].content_store 	decision_no[11] 	154157
scalar abilene_cost_network.node[11].content_store 	decision_ratio[11] 	0
scalar abilene_cost_network.node[12].core_layer 	interests[12] 	70195
scalar abilene_cost_network.node[12].core_layer 	repo_load[12] 	70195
scalar abilene_cost_network.node[12].core_layer 	data[12] 	0
scalar abilene_cost_network.node[12].content_store 	p_hit[12] 	0
scalar abilene_cost_network.node[12].content_store 	hits[12] 	0
scalar abilene_cost_network.node[12].content_store 	misses[12] 	70195
scalar abilene_cost_network.node[12].content_store 	decision_yes[12] 	0
scalar abilene_cost_network.node[12].content_store 	decision_no[12] 	70195
scalar abilene_cost_network.node[12].content_store 	decision_ratio[12] 	0
scalar abilene_cost_network.node[13].core_layer 	interests[13] 	73880
scalar abilene_cost_network.node[13].core_layer 	repo_load[13] 	73880
scalar abilene_cost_network.node[13].core_layer 	data[13] 	0
scalar abilene_cost_network.node[13].content_store 	p_hit[13] 	0
scalar abilene_cost_network.node[13].content_store 	hits[13] 	0
scalar abilene_cost_network.node[13].content_store 	misses[13] 	73880
scalar abilene_cost_network.node[13].content_store 	decision_yes[13] 	0
scalar abilene_cost_network.node[13].content_store 	decision_no[13] 	73880
scalar abilene_cost_network.node[13].content_store 	decision_ratio[13] 	0
scalar abilene_cost_network.client[0] 	hdistance[0] 	2.886830222842
scalar abilene_cost_network.client[0] 	downloads[0] 	177839
scalar abilene_cost_network.client[0] 	avg_time[0] 	0.013318788078
scalar abilene_cost_network.client[0] 	interests_sent[0] 	180131
scalar abilene_cost_network.client[5] 	hdistance[5] 	4.6437642056698
scalar abilene_cost_network.client[5] 	downloads[5] 	176866
scalar abilene_cost_network.client[5] 	avg_time[5] 	0.019201465741
scalar abilene_cost_network.client[5] 	interests_sent[5] 	180052
scalar abilene_cost_network.client[9] 	hdistance[9] 	2.8501101046562
scalar abilene_cost_network.client[9] 	downloads[9] 	176196
scalar abilene_cost_network.client[9] 	avg_time[9] 	0.012922308966
scalar abilene_cost_network.client[9] 	interests_sent[9] 	179051
