version 2
run General-236-20140418-15:27:00-1847
attr D prob_cache
attr F nrr
attr R lru
attr a 1
attr configname General
attr csize 10
attr ctlg 10^8
attr datetime 20140418-15:27:00
attr experiment General
attr inifile omnetpp.ini
attr iterationvars "$net=simple_scenario, $rep=1, $priceratiovalue=10, $a=1, $ctlg=10^8, $F=nrr, $ttl=1000, $D=prob_cache, $R=lru, $csize=10"
attr iterationvars2 "$net=simple_scenario, $rep=1, $priceratiovalue=10, $a=1, $ctlg=10^8, $F=nrr, $ttl=1000, $D=prob_cache, $R=lru, $csize=10, $repetition=0"
attr measurement "$net=simple_scenario, $rep=1, $priceratiovalue=10, $a=1, $ctlg=10^8, $F=nrr, $ttl=1000, $D=prob_cache, $R=lru, $csize=10"
attr net simple_scenario
attr network networks.${net=simple_scenario}_network
attr priceratiovalue 10
attr processid 1847
attr rep 1
attr repetition 0
attr replication #0
attr resultdir results
attr runnumber 236
attr seedset 1
attr ttl 1000

scalar . 	a 	1
scalar . 	csize 	10
scalar . 	priceratiovalue 	10
scalar . 	rep 	1
scalar . 	ttl 	1000
scalar simple_scenario_network.content_distribution 	repo-0 	3
scalar simple_scenario_network.content_distribution 	repo-1 	4
scalar simple_scenario_network.content_distribution 	client-0 	0
scalar simple_scenario_network.content_distribution 	repo-0_card 	50003719
scalar simple_scenario_network.content_distribution 	repo-1_card 	49996281
scalar simple_scenario_network.statistics 	p_hit 	0.036141696010376
scalar simple_scenario_network.statistics 	interests 	101157.4
scalar simple_scenario_network.statistics 	data 	65336.6
scalar simple_scenario_network.statistics 	hdistance 	2.7219213417902
scalar simple_scenario_network.statistics 	avg_time 	0.001999054403
scalar simple_scenario_network.statistics 	downloads 	179104
scalar simple_scenario_network.statistics 	total_cost 	81562
scalar simple_scenario_network.node[0].core_layer 	interests[0] 	179104
scalar simple_scenario_network.node[0].core_layer 	data[0] 	165859
scalar simple_scenario_network.node[0].core_layer 	repo_int[0] 	160824
scalar simple_scenario_network.node[0].content_store 	p_hit[0] 	0.073951447203859
scalar simple_scenario_network.node[0].content_store 	hits[0] 	13245
scalar simple_scenario_network.node[0].content_store 	misses[0] 	165859
scalar simple_scenario_network.node[1].core_layer 	interests[1] 	81185
scalar simple_scenario_network.node[1].core_layer 	data[1] 	79005
scalar simple_scenario_network.node[1].content_store 	p_hit[1] 	0.026852251031595
scalar simple_scenario_network.node[1].content_store 	hits[1] 	2180
scalar simple_scenario_network.node[1].content_store 	misses[1] 	79005
scalar simple_scenario_network.node[2].core_layer 	interests[2] 	84674
scalar simple_scenario_network.node[2].core_layer 	data[2] 	81819
scalar simple_scenario_network.node[2].content_store 	p_hit[2] 	0.033717552023053
scalar simple_scenario_network.node[2].content_store 	hits[2] 	2855
scalar simple_scenario_network.node[2].content_store 	misses[2] 	81819
scalar simple_scenario_network.node[3].core_layer 	interests[3] 	79005
scalar simple_scenario_network.node[3].core_layer 	repo_load[3] 	79005
scalar simple_scenario_network.node[3].core_layer 	data[3] 	0
scalar simple_scenario_network.node[3].content_store 	p_hit[3] 	0
scalar simple_scenario_network.node[3].content_store 	hits[3] 	0
scalar simple_scenario_network.node[3].content_store 	misses[3] 	79005
scalar simple_scenario_network.node[4].core_layer 	interests[4] 	81819
scalar simple_scenario_network.node[4].core_layer 	repo_load[4] 	81819
scalar simple_scenario_network.node[4].core_layer 	data[4] 	0
scalar simple_scenario_network.node[4].content_store 	p_hit[4] 	0
scalar simple_scenario_network.node[4].content_store 	hits[4] 	0
scalar simple_scenario_network.node[4].content_store 	misses[4] 	81819
scalar simple_scenario_network.client[0] 	hdistance[0] 	2.7219213417902
scalar simple_scenario_network.client[0] 	downloads[0] 	179104
scalar simple_scenario_network.client[0] 	avg_time[0] 	0.001999054403
