version 2
run General-1523-20140502-03:57:44-10443
attr D fix0.005
attr F nrr
attr R lru
attr a 0.8
attr configname General
attr csize 1e3
attr ctlg 1e5
attr datetime 20140502-03:57:44
attr experiment General
attr inifile omnetpp.ini
attr iterationvars "$net=three_caches_scenario_3_links, $rep=3, $priceratiovalue=5, $weights=0.7_0.15_0.15, $a=0.8, $ctlg=1e5, $F=nrr, $ttl=1000, $D=fix0.005, $xi=1, $R=lru, $csize=1e3"
attr iterationvars2 "$net=three_caches_scenario_3_links, $rep=3, $priceratiovalue=5, $weights=0.7_0.15_0.15, $a=0.8, $ctlg=1e5, $F=nrr, $ttl=1000, $D=fix0.005, $xi=1, $R=lru, $csize=1e3, $repetition=0"
attr measurement "$net=three_caches_scenario_3_links, $rep=3, $priceratiovalue=5, $weights=0.7_0.15_0.15, $a=0.8, $ctlg=1e5, $F=nrr, $ttl=1000, $D=fix0.005, $xi=1, $R=lru, $csize=1e3"
attr net three_caches_scenario_3_links
attr network networks.${net=three_caches_scenario_3_links}_network
attr priceratiovalue 5
attr processid 10443
attr rep 3
attr repetition 0
attr replication #0
attr resultdir results
attr runnumber 1523
attr seedset 3
attr ttl 1000
attr weights 0.7_0.15_0.15
attr xi 1

scalar . 	a 	0.8
scalar . 	csize 	1e3
scalar . 	ctlg 	1e5
scalar . 	priceratiovalue 	5
scalar . 	rep 	3
scalar . 	ttl 	1000
scalar . 	xi 	1
scalar three_caches_scenario_3_links_network.content_distribution 	repo-0 	4
scalar three_caches_scenario_3_links_network.content_distribution 	repo-1 	5
scalar three_caches_scenario_3_links_network.content_distribution 	repo-2 	6
scalar three_caches_scenario_3_links_network.content_distribution 	client-0 	0
scalar three_caches_scenario_3_links_network.content_distribution 	repo-0_card 	69828
scalar three_caches_scenario_3_links_network.content_distribution 	repo-1_card 	15121
scalar three_caches_scenario_3_links_network.content_distribution 	repo-2_card 	15051
scalar three_caches_scenario_3_links_network.statistics 	p_hit 	0.10062694749563
scalar three_caches_scenario_3_links_network.statistics 	interests 	64781
scalar three_caches_scenario_3_links_network.statistics 	data 	39054.142857143
scalar three_caches_scenario_3_links_network.statistics 	hdistance 	1.7239682821732
scalar three_caches_scenario_3_links_network.statistics 	avg_time 	0
scalar three_caches_scenario_3_links_network.statistics 	downloads 	180088
scalar three_caches_scenario_3_links_network.statistics 	total_cost 	110847
scalar three_caches_scenario_3_links_network.statistics 	total_replicas 	100000
scalar three_caches_scenario_3_links_network.statistics 	interests_sent 	180088
scalar three_caches_scenario_3_links_network.node[0].core_layer 	interests[0] 	180088
scalar three_caches_scenario_3_links_network.node[0].core_layer 	data[0] 	138922
scalar three_caches_scenario_3_links_network.node[0].core_layer 	repo_int[0] 	134457
scalar three_caches_scenario_3_links_network.node[0].content_store 	p_hit[0] 	0.22858824574652
scalar three_caches_scenario_3_links_network.node[0].content_store 	hits[0] 	41166
scalar three_caches_scenario_3_links_network.node[0].content_store 	misses[0] 	138922
scalar three_caches_scenario_3_links_network.node[0].content_store 	decision_yes[0] 	742
scalar three_caches_scenario_3_links_network.node[0].content_store 	decision_no[0] 	138180
scalar three_caches_scenario_3_links_network.node[1].core_layer 	interests[1] 	97370
scalar three_caches_scenario_3_links_network.node[1].core_layer 	data[1] 	97370
scalar three_caches_scenario_3_links_network.node[1].content_store 	p_hit[1] 	0
scalar three_caches_scenario_3_links_network.node[1].content_store 	hits[1] 	0
scalar three_caches_scenario_3_links_network.node[1].content_store 	misses[1] 	97370
scalar three_caches_scenario_3_links_network.node[1].content_store 	decision_yes[1] 	0
scalar three_caches_scenario_3_links_network.node[1].content_store 	decision_no[1] 	97370
scalar three_caches_scenario_3_links_network.node[2].core_layer 	interests[2] 	20788
scalar three_caches_scenario_3_links_network.node[2].core_layer 	data[2] 	18647
scalar three_caches_scenario_3_links_network.node[2].content_store 	p_hit[2] 	0.10299211083317
scalar three_caches_scenario_3_links_network.node[2].content_store 	hits[2] 	2141
scalar three_caches_scenario_3_links_network.node[2].content_store 	misses[2] 	18647
scalar three_caches_scenario_3_links_network.node[2].content_store 	decision_yes[2] 	103
scalar three_caches_scenario_3_links_network.node[2].content_store 	decision_no[2] 	18544
scalar three_caches_scenario_3_links_network.node[3].core_layer 	interests[3] 	20764
scalar three_caches_scenario_3_links_network.node[3].core_layer 	data[3] 	18440
scalar three_caches_scenario_3_links_network.node[3].content_store 	p_hit[3] 	0.11192448468503
scalar three_caches_scenario_3_links_network.node[3].content_store 	hits[3] 	2324
scalar three_caches_scenario_3_links_network.node[3].content_store 	misses[3] 	18440
scalar three_caches_scenario_3_links_network.node[3].content_store 	decision_yes[3] 	96
scalar three_caches_scenario_3_links_network.node[3].content_store 	decision_no[3] 	18344
scalar three_caches_scenario_3_links_network.node[4].core_layer 	interests[4] 	97370
scalar three_caches_scenario_3_links_network.node[4].core_layer 	repo_load[4] 	97370
scalar three_caches_scenario_3_links_network.node[4].core_layer 	data[4] 	0
scalar three_caches_scenario_3_links_network.node[4].content_store 	p_hit[4] 	0
scalar three_caches_scenario_3_links_network.node[4].content_store 	hits[4] 	0
scalar three_caches_scenario_3_links_network.node[4].content_store 	misses[4] 	97370
scalar three_caches_scenario_3_links_network.node[4].content_store 	decision_yes[4] 	0
scalar three_caches_scenario_3_links_network.node[4].content_store 	decision_no[4] 	97370
scalar three_caches_scenario_3_links_network.node[5].core_layer 	interests[5] 	18647
scalar three_caches_scenario_3_links_network.node[5].core_layer 	repo_load[5] 	18647
scalar three_caches_scenario_3_links_network.node[5].core_layer 	data[5] 	0
scalar three_caches_scenario_3_links_network.node[5].content_store 	p_hit[5] 	0
scalar three_caches_scenario_3_links_network.node[5].content_store 	hits[5] 	0
scalar three_caches_scenario_3_links_network.node[5].content_store 	misses[5] 	18647
scalar three_caches_scenario_3_links_network.node[5].content_store 	decision_yes[5] 	0
scalar three_caches_scenario_3_links_network.node[5].content_store 	decision_no[5] 	18647
scalar three_caches_scenario_3_links_network.node[6].core_layer 	interests[6] 	18440
scalar three_caches_scenario_3_links_network.node[6].core_layer 	repo_load[6] 	18440
scalar three_caches_scenario_3_links_network.node[6].core_layer 	data[6] 	0
scalar three_caches_scenario_3_links_network.node[6].content_store 	p_hit[6] 	0
scalar three_caches_scenario_3_links_network.node[6].content_store 	hits[6] 	0
scalar three_caches_scenario_3_links_network.node[6].content_store 	misses[6] 	18440
scalar three_caches_scenario_3_links_network.node[6].content_store 	decision_yes[6] 	0
scalar three_caches_scenario_3_links_network.node[6].content_store 	decision_no[6] 	18440
scalar three_caches_scenario_3_links_network.client[0] 	hdistance[0] 	1.7239682821732
scalar three_caches_scenario_3_links_network.client[0] 	downloads[0] 	180088
scalar three_caches_scenario_3_links_network.client[0] 	avg_time[0] 	0
scalar three_caches_scenario_3_links_network.client[0] 	interests_sent[0] 	180088
