version 2
run General-1-20150311-18:59:35-28954
attr D lcd
attr F spr
attr R lru
attr a 0.5
attr configname General
attr datetime 20150311-18:59:35
attr experiment General
attr inifile omnetpp.ini
attr iterationvars "$net=abilene, $rep=0, $a=0.5, $F=spr, $ttl=1000, $D=lcd, $R=lru"
attr iterationvars2 "$net=abilene, $rep=0, $a=0.5, $F=spr, $ttl=1000, $D=lcd, $R=lru, $repetition=0"
attr measurement "$net=abilene, $rep=0, $a=0.5, $F=spr, $ttl=1000, $D=lcd, $R=lru"
attr net abilene
attr network networks.${net=abilene}_network
attr processid 28954
attr rep 0
attr repetition 0
attr replication #0
attr resultdir results
attr runnumber 1
attr seedset 0
attr ttl 1000

scalar . 	a 	0.5
scalar . 	rep 	0
scalar . 	ttl 	1000
scalar abilene_network.content_distribution 	repo-0 	5
scalar abilene_network.content_distribution 	client-0 	8
scalar abilene_network.content_distribution 	client-1 	9
scalar abilene_network.content_distribution 	client-2 	5
scalar abilene_network.content_distribution 	client-3 	0
scalar abilene_network.content_distribution 	client-4 	1
scalar abilene_network.content_distribution 	client-5 	7
scalar abilene_network.content_distribution 	client-6 	6
scalar abilene_network.content_distribution 	client-7 	2
scalar abilene_network.content_distribution 	client-8 	4
scalar abilene_network.content_distribution 	client-9 	10
scalar abilene_network.content_distribution 	client-10 	3
scalar abilene_network.content_distribution 	repo-0_card 	10000
scalar abilene_network.content_distribution 	repo-0_price 	0
scalar abilene_network.statistics 	stabilization_time 	7703.9
scalar abilene_network.statistics 	p_hit 	0.025395635755672
scalar abilene_network.statistics 	interests 	6307.4545454545
scalar abilene_network.statistics 	data 	4511.0909090909
scalar abilene_network.statistics 	hdistance 	3.4058304634316
scalar abilene_network.statistics 	avg_time 	0.0140689248
scalar abilene_network.statistics 	downloads 	19760
scalar abilene_network.statistics 	total_cost 	0
scalar abilene_network.statistics 	total_replicas 	10000
scalar abilene_network.statistics 	inner_hit 	0.08917004048583
scalar abilene_network.node[0].core_layer 	interests[0] 	1742
scalar abilene_network.node[0].core_layer 	data[0] 	1597
scalar abilene_network.node[0].core_layer 	repo_int[0] 	17998
scalar abilene_network.node[0].content_store 	p_hit[0] 	0.083237657864524
scalar abilene_network.node[0].content_store 	hits[0] 	145
scalar abilene_network.node[0].content_store 	misses[0] 	1597
scalar abilene_network.node[0].content_store 	decision_yes[0] 	17
scalar abilene_network.node[0].content_store 	decision_no[0] 	1580
scalar abilene_network.node[0].content_store 	decision_ratio[0] 	0.010644959298685
scalar abilene_network.node[1].core_layer 	interests[1] 	5140
scalar abilene_network.node[1].core_layer 	data[1] 	4948
scalar abilene_network.node[1].content_store 	p_hit[1] 	0.037354085603113
scalar abilene_network.node[1].content_store 	hits[1] 	192
scalar abilene_network.node[1].content_store 	misses[1] 	4948
scalar abilene_network.node[1].content_store 	decision_yes[1] 	48
scalar abilene_network.node[1].content_store 	decision_no[1] 	4900
scalar abilene_network.node[1].content_store 	decision_ratio[1] 	0.0097008892481811
scalar abilene_network.node[2].core_layer 	interests[2] 	6750
scalar abilene_network.node[2].core_layer 	data[2] 	6583
scalar abilene_network.node[2].content_store 	p_hit[2] 	0.024740740740741
scalar abilene_network.node[2].content_store 	hits[2] 	167
scalar abilene_network.node[2].content_store 	misses[2] 	6583
scalar abilene_network.node[2].content_store 	decision_yes[2] 	58
scalar abilene_network.node[2].content_store 	decision_no[2] 	6525
scalar abilene_network.node[2].content_store 	decision_ratio[2] 	0.0088105726872247
scalar abilene_network.node[3].core_layer 	interests[3] 	8392
scalar abilene_network.node[3].core_layer 	data[3] 	8224
scalar abilene_network.node[3].content_store 	p_hit[3] 	0.02001906577693
scalar abilene_network.node[3].content_store 	hits[3] 	168
scalar abilene_network.node[3].content_store 	misses[3] 	8224
scalar abilene_network.node[3].content_store 	decision_yes[3] 	81
scalar abilene_network.node[3].content_store 	decision_no[3] 	8143
scalar abilene_network.node[3].content_store 	decision_ratio[3] 	0.0098492217898833
scalar abilene_network.node[4].core_layer 	interests[4] 	10052
scalar abilene_network.node[4].core_layer 	data[4] 	9895
scalar abilene_network.node[4].content_store 	p_hit[4] 	0.015618782331874
scalar abilene_network.node[4].content_store 	hits[4] 	157
scalar abilene_network.node[4].content_store 	misses[4] 	9895
scalar abilene_network.node[4].content_store 	decision_yes[4] 	121
scalar abilene_network.node[4].content_store 	decision_no[4] 	9774
scalar abilene_network.node[4].content_store 	decision_ratio[4] 	0.012228398180899
scalar abilene_network.node[5].core_layer 	interests[5] 	18217
scalar abilene_network.node[5].core_layer 	repo_load[5] 	17998
scalar abilene_network.node[5].core_layer 	data[5] 	0
scalar abilene_network.node[5].content_store 	p_hit[5] 	0.012021737937092
scalar abilene_network.node[5].content_store 	hits[5] 	219
scalar abilene_network.node[5].content_store 	misses[5] 	17998
scalar abilene_network.node[5].content_store 	decision_yes[5] 	17998
scalar abilene_network.node[5].content_store 	decision_no[5] 	0
scalar abilene_network.node[5].content_store 	decision_ratio[5] 	1
scalar abilene_network.node[6].core_layer 	interests[6] 	6756
scalar abilene_network.node[6].core_layer 	data[6] 	6630
scalar abilene_network.node[6].content_store 	p_hit[6] 	0.018650088809947
scalar abilene_network.node[6].content_store 	hits[6] 	126
scalar abilene_network.node[6].content_store 	misses[6] 	6630
scalar abilene_network.node[6].content_store 	decision_yes[6] 	74
scalar abilene_network.node[6].content_store 	decision_no[6] 	6556
scalar abilene_network.node[6].content_store 	decision_ratio[6] 	0.011161387631976
scalar abilene_network.node[7].core_layer 	interests[7] 	5156
scalar abilene_network.node[7].core_layer 	data[7] 	5006
scalar abilene_network.node[7].content_store 	p_hit[7] 	0.029092319627618
scalar abilene_network.node[7].content_store 	hits[7] 	150
scalar abilene_network.node[7].content_store 	misses[7] 	5006
scalar abilene_network.node[7].content_store 	decision_yes[7] 	49
scalar abilene_network.node[7].content_store 	decision_no[7] 	4957
scalar abilene_network.node[7].content_store 	decision_ratio[7] 	0.0097882540950859
scalar abilene_network.node[8].core_layer 	interests[8] 	3528
scalar abilene_network.node[8].core_layer 	data[8] 	3364
scalar abilene_network.node[8].content_store 	p_hit[8] 	0.046485260770975
scalar abilene_network.node[8].content_store 	hits[8] 	164
scalar abilene_network.node[8].content_store 	misses[8] 	3364
scalar abilene_network.node[8].content_store 	decision_yes[8] 	34
scalar abilene_network.node[8].content_store 	decision_no[8] 	3330
scalar abilene_network.node[8].content_store 	decision_ratio[8] 	0.010107015457788
scalar abilene_network.node[9].core_layer 	interests[9] 	1828
scalar abilene_network.node[9].core_layer 	data[9] 	1684
scalar abilene_network.node[9].content_store 	p_hit[9] 	0.078774617067834
scalar abilene_network.node[9].content_store 	hits[9] 	144
scalar abilene_network.node[9].content_store 	misses[9] 	1684
scalar abilene_network.node[9].content_store 	decision_yes[9] 	23
scalar abilene_network.node[9].content_store 	decision_no[9] 	1661
scalar abilene_network.node[9].content_store 	decision_ratio[9] 	0.013657957244656
scalar abilene_network.node[10].core_layer 	interests[10] 	1821
scalar abilene_network.node[10].core_layer 	data[10] 	1691
scalar abilene_network.node[10].content_store 	p_hit[10] 	0.071389346512905
scalar abilene_network.node[10].content_store 	hits[10] 	130
scalar abilene_network.node[10].content_store 	misses[10] 	1691
scalar abilene_network.node[10].content_store 	decision_yes[10] 	39
scalar abilene_network.node[10].content_store 	decision_no[10] 	1652
scalar abilene_network.node[10].content_store 	decision_ratio[10] 	0.023063276167948
scalar abilene_network.client[0] 	hdistance[0] 	5.382319173364
scalar abilene_network.client[0] 	downloads[0] 	1742
scalar abilene_network.client[0] 	avg_time[0] 	0.02820367351
scalar abilene_network.client[1] 	hdistance[1] 	4.5280777537797
scalar abilene_network.client[1] 	downloads[1] 	1852
scalar abilene_network.client[1] 	avg_time[1] 	0.018420409904
scalar abilene_network.client[2] 	hdistance[2] 	3.6742508324084
scalar abilene_network.client[2] 	downloads[2] 	1802
scalar abilene_network.client[2] 	avg_time[2] 	0.013149400218
scalar abilene_network.client[3] 	hdistance[3] 	2.787728026534
scalar abilene_network.client[3] 	downloads[3] 	1809
scalar abilene_network.client[3] 	avg_time[3] 	0.008743946472
scalar abilene_network.client[4] 	hdistance[4] 	1.9059080962801
scalar abilene_network.client[4] 	downloads[4] 	1828
scalar abilene_network.client[4] 	avg_time[4] 	0.007322362781
scalar abilene_network.client[5] 	hdistance[5] 	0.98581560283688
scalar abilene_network.client[5] 	downloads[5] 	1692
scalar abilene_network.client[5] 	avg_time[5] 	0
scalar abilene_network.client[6] 	hdistance[6] 	1.9005714285714
scalar abilene_network.client[6] 	downloads[6] 	1750
scalar abilene_network.client[6] 	avg_time[6] 	0.002103199569
scalar abilene_network.client[7] 	hdistance[7] 	2.7728794642857
scalar abilene_network.client[7] 	downloads[7] 	1792
scalar abilene_network.client[7] 	avg_time[7] 	0.007473838854
scalar abilene_network.client[8] 	hdistance[8] 	3.6301518438178
scalar abilene_network.client[8] 	downloads[8] 	1844
scalar abilene_network.client[8] 	avg_time[8] 	0.014247168726
scalar abilene_network.client[9] 	hdistance[9] 	4.5136761487965
scalar abilene_network.client[9] 	downloads[9] 	1828
scalar abilene_network.client[9] 	avg_time[9] 	0.027641389037
scalar abilene_network.client[10] 	hdistance[10] 	5.382756727073
scalar abilene_network.client[10] 	downloads[10] 	1821
scalar abilene_network.client[10] 	avg_time[10] 	0.027452783731
