version 2
run General-13-20140625-19:32:07-12856
attr D costprobprodcorr0.01
attr F spr
attr R lru
attr a 1
attr configname General
attr csize 1e3
attr ctlg 1e5
attr datetime 20140625-19:32:07
attr experiment General
attr inifile omnetpp.ini
attr iterationvars "$net=abilene_cost, $rep=1, $priceratiovalue=10, $weights=0.333_0.333_0.334, $lambda=100, $a=1, $ctlg=1e5, $F=spr, $ttl=1000, $D=costprobprodcorr0.01, $xi=0.025, $R=lru, $csize=1e3, $pricebits=0, $mytime=1800"
attr iterationvars2 "$net=abilene_cost, $rep=1, $priceratiovalue=10, $weights=0.333_0.333_0.334, $lambda=100, $a=1, $ctlg=1e5, $F=spr, $ttl=1000, $D=costprobprodcorr0.01, $xi=0.025, $R=lru, $csize=1e3, $pricebits=0, $mytime=1800, $repetition=0"
attr lambda 100
attr measurement "$net=abilene_cost, $rep=1, $priceratiovalue=10, $weights=0.333_0.333_0.334, $lambda=100, $a=1, $ctlg=1e5, $F=spr, $ttl=1000, $D=costprobprodcorr0.01, $xi=0.025, $R=lru, $csize=1e3, $pricebits=0, $mytime=1800"
attr mytime 1800
attr net abilene_cost
attr network "networks.${net=geant_cost, abilene_cost}_network"
attr pricebits 0
attr priceratiovalue 10
attr processid 12856
attr rep 1
attr repetition 0
attr replication #0
attr resultdir results
attr runnumber 13
attr seedset 1
attr ttl 1000
attr weights 0.333_0.333_0.334
attr xi 0.025

scalar . 	a 	1
scalar . 	csize 	1e3
scalar . 	ctlg 	1e5
scalar . 	lambda 	100
scalar . 	mytime 	1800
scalar . 	pricebits 	0
scalar . 	priceratiovalue 	10
scalar . 	rep 	1
scalar . 	ttl 	1000
scalar . 	xi 	0.025
scalar abilene_cost_network.content_distribution 	repo-0 	11
scalar abilene_cost_network.content_distribution 	repo-1 	12
scalar abilene_cost_network.content_distribution 	repo-2 	13
scalar abilene_cost_network.content_distribution 	client-0 	5
scalar abilene_cost_network.content_distribution 	client-1 	0
scalar abilene_cost_network.content_distribution 	client-2 	9
scalar abilene_cost_network.content_distribution 	repo-0_card 	33396
scalar abilene_cost_network.content_distribution 	repo-1_card 	33039
scalar abilene_cost_network.content_distribution 	repo-2_card 	33565
scalar abilene_cost_network.statistics 	repo_popularity[0] 	0.28686251265602
scalar abilene_cost_network.statistics 	repo_popularity[1] 	0.2886063426465
scalar abilene_cost_network.statistics 	repo_popularity[2] 	0.42453114469748
scalar abilene_cost_network.statistics 	stabilization_time 	467.9
scalar abilene_cost_network.node[1].face$o[4].channel 	price[1] 	0
scalar abilene_cost_network.node[1].face$o[4].channel 	represented_price[1] 	0
scalar abilene_cost_network.node[7].face$o[4].channel 	price[7] 	0
scalar abilene_cost_network.node[7].face$o[4].channel 	represented_price[7] 	0
scalar abilene_cost_network.node[10].face$o[4].channel 	price[10] 	0
scalar abilene_cost_network.node[10].face$o[4].channel 	represented_price[10] 	0
scalar abilene_cost_network.node[11].face$o[1].channel 	price[11] 	0
scalar abilene_cost_network.node[11].face$o[1].channel 	represented_price[11] 	0
scalar abilene_cost_network.node[12].face$o[1].channel 	price[12] 	1
scalar abilene_cost_network.node[12].face$o[1].channel 	represented_price[12] 	1
scalar abilene_cost_network.node[13].face$o[1].channel 	price[13] 	10
scalar abilene_cost_network.node[13].face$o[1].channel 	represented_price[13] 	10
scalar abilene_cost_network.statistics 	p_hit 	0.10475468743474
scalar abilene_cost_network.statistics 	interests 	141948.64285714
scalar abilene_cost_network.statistics 	data 	103420
scalar abilene_cost_network.statistics 	hdistance 	3.3301290990463
scalar abilene_cost_network.statistics 	avg_time 	0.013509713819
scalar abilene_cost_network.statistics 	downloads 	532474
scalar abilene_cost_network.statistics 	total_cost 	960045
scalar abilene_cost_network.statistics 	total_replicas 	100000
scalar abilene_cost_network.statistics 	inner_hit 	0.39095617814203
scalar abilene_cost_network.statistics 	interests_sent 	539395
scalar abilene_cost_network.node[0].core_layer 	interests[0] 	180233
scalar abilene_cost_network.node[0].core_layer 	data[0] 	157963
scalar abilene_cost_network.node[0].core_layer 	repo_int[0] 	324300
scalar abilene_cost_network.node[0].content_store 	p_hit[0] 	0.11341985097069
scalar abilene_cost_network.node[0].content_store 	hits[0] 	20442
scalar abilene_cost_network.node[0].content_store 	misses[0] 	159791
scalar abilene_cost_network.node[0].content_store 	decision_yes[0] 	875
scalar abilene_cost_network.node[0].content_store 	decision_no[0] 	157088
scalar abilene_cost_network.node[0].content_store 	decision_ratio[0] 	0.0055392718548014
scalar abilene_cost_network.node[0].content_store 	correction_factor[0] 	0.014560475784388
scalar abilene_cost_network.node[0].content_store 	xi[0] 	0.025
scalar abilene_cost_network.node[1].core_layer 	interests[1] 	260090
scalar abilene_cost_network.node[1].core_layer 	data[1] 	184759
scalar abilene_cost_network.node[1].content_store 	p_hit[1] 	0.2896305125149
scalar abilene_cost_network.node[1].content_store 	hits[1] 	75330
scalar abilene_cost_network.node[1].content_store 	misses[1] 	184760
scalar abilene_cost_network.node[1].content_store 	decision_yes[1] 	1719
scalar abilene_cost_network.node[1].content_store 	decision_no[1] 	183040
scalar abilene_cost_network.node[1].content_store 	decision_ratio[1] 	0.0093040122538009
scalar abilene_cost_network.node[1].content_store 	correction_factor[1] 	0.014560475784388
scalar abilene_cost_network.node[1].content_store 	xi[1] 	0.025
scalar abilene_cost_network.node[2].core_layer 	interests[2] 	150015
scalar abilene_cost_network.node[2].core_layer 	data[2] 	142006
scalar abilene_cost_network.node[2].content_store 	p_hit[2] 	0.05338799453388
scalar abilene_cost_network.node[2].content_store 	hits[2] 	8009
scalar abilene_cost_network.node[2].content_store 	misses[2] 	142006
scalar abilene_cost_network.node[2].content_store 	decision_yes[2] 	820
scalar abilene_cost_network.node[2].content_store 	decision_no[2] 	141186
scalar abilene_cost_network.node[2].content_store 	decision_ratio[2] 	0.0057744038984268
scalar abilene_cost_network.node[2].content_store 	correction_factor[2] 	0.014560475784388
scalar abilene_cost_network.node[2].content_store 	xi[2] 	0.025
scalar abilene_cost_network.node[3].core_layer 	interests[3] 	157628
scalar abilene_cost_network.node[3].core_layer 	data[3] 	144590
scalar abilene_cost_network.node[3].content_store 	p_hit[3] 	0.082713731063009
scalar abilene_cost_network.node[3].content_store 	hits[3] 	13038
scalar abilene_cost_network.node[3].content_store 	misses[3] 	144590
scalar abilene_cost_network.node[3].content_store 	decision_yes[3] 	820
scalar abilene_cost_network.node[3].content_store 	decision_no[3] 	143770
scalar abilene_cost_network.node[3].content_store 	decision_ratio[3] 	0.0056712082440003
scalar abilene_cost_network.node[3].content_store 	correction_factor[3] 	0.014560475784388
scalar abilene_cost_network.node[3].content_store 	xi[3] 	0.025
scalar abilene_cost_network.node[4].core_layer 	interests[4] 	122865
scalar abilene_cost_network.node[4].core_layer 	data[4] 	115207
scalar abilene_cost_network.node[4].content_store 	p_hit[4] 	0.062312293981199
scalar abilene_cost_network.node[4].content_store 	hits[4] 	7656
scalar abilene_cost_network.node[4].content_store 	misses[4] 	115209
scalar abilene_cost_network.node[4].content_store 	decision_yes[4] 	452
scalar abilene_cost_network.node[4].content_store 	decision_no[4] 	114755
scalar abilene_cost_network.node[4].content_store 	decision_ratio[4] 	0.0039233727117276
scalar abilene_cost_network.node[4].content_store 	correction_factor[4] 	0.014560475784388
scalar abilene_cost_network.node[4].content_store 	xi[4] 	0.025
scalar abilene_cost_network.node[5].core_layer 	interests[5] 	179862
scalar abilene_cost_network.node[5].core_layer 	data[5] 	170879
scalar abilene_cost_network.node[5].content_store 	p_hit[5] 	0.033103156864707
scalar abilene_cost_network.node[5].content_store 	hits[5] 	5954
scalar abilene_cost_network.node[5].content_store 	misses[5] 	173908
scalar abilene_cost_network.node[5].content_store 	decision_yes[5] 	819
scalar abilene_cost_network.node[5].content_store 	decision_no[5] 	170060
scalar abilene_cost_network.node[5].content_store 	decision_ratio[5] 	0.0047928651267856
scalar abilene_cost_network.node[5].content_store 	correction_factor[5] 	0.014560475784388
scalar abilene_cost_network.node[5].content_store 	xi[5] 	0.025
scalar abilene_cost_network.node[6].core_layer 	interests[6] 	48016
scalar abilene_cost_network.node[6].core_layer 	data[6] 	41010
scalar abilene_cost_network.node[6].content_store 	p_hit[6] 	0.14590969676774
scalar abilene_cost_network.node[6].content_store 	hits[6] 	7006
scalar abilene_cost_network.node[6].content_store 	misses[6] 	41010
scalar abilene_cost_network.node[6].content_store 	decision_yes[6] 	396
scalar abilene_cost_network.node[6].content_store 	decision_no[6] 	40614
scalar abilene_cost_network.node[6].content_store 	decision_ratio[6] 	0.0096561814191661
scalar abilene_cost_network.node[6].content_store 	correction_factor[6] 	0.014560475784388
scalar abilene_cost_network.node[6].content_store 	xi[6] 	0.025
scalar abilene_cost_network.node[7].core_layer 	interests[7] 	122286
scalar abilene_cost_network.node[7].core_layer 	data[7] 	82285
scalar abilene_cost_network.node[7].content_store 	p_hit[7] 	0.3271102170322
scalar abilene_cost_network.node[7].content_store 	hits[7] 	40001
scalar abilene_cost_network.node[7].content_store 	misses[7] 	82285
scalar abilene_cost_network.node[7].content_store 	decision_yes[7] 	1209
scalar abilene_cost_network.node[7].content_store 	decision_no[7] 	81076
scalar abilene_cost_network.node[7].content_store 	decision_ratio[7] 	0.014692835875311
scalar abilene_cost_network.node[7].content_store 	correction_factor[7] 	0.014560475784388
scalar abilene_cost_network.node[7].content_store 	xi[7] 	0.025
scalar abilene_cost_network.node[8].core_layer 	interests[8] 	45478
scalar abilene_cost_network.node[8].core_layer 	data[8] 	40934
scalar abilene_cost_network.node[8].content_store 	p_hit[8] 	0.099916443115352
scalar abilene_cost_network.node[8].content_store 	hits[8] 	4544
scalar abilene_cost_network.node[8].content_store 	misses[8] 	40934
scalar abilene_cost_network.node[8].content_store 	decision_yes[8] 	404
scalar abilene_cost_network.node[8].content_store 	decision_no[8] 	40530
scalar abilene_cost_network.node[8].content_store 	decision_ratio[8] 	0.0098695460985977
scalar abilene_cost_network.node[8].content_store 	correction_factor[8] 	0.014560475784388
scalar abilene_cost_network.node[8].content_store 	xi[8] 	0.025
scalar abilene_cost_network.node[9].core_layer 	interests[9] 	179300
scalar abilene_cost_network.node[9].core_layer 	data[9] 	159875
scalar abilene_cost_network.node[9].content_store 	p_hit[9] 	0.096826547685443
scalar abilene_cost_network.node[9].content_store 	hits[9] 	17361
scalar abilene_cost_network.node[9].content_store 	misses[9] 	161939
scalar abilene_cost_network.node[9].content_store 	decision_yes[9] 	816
scalar abilene_cost_network.node[9].content_store 	decision_no[9] 	159059
scalar abilene_cost_network.node[9].content_store 	decision_ratio[9] 	0.0051039874902267
scalar abilene_cost_network.node[9].content_store 	correction_factor[9] 	0.014560475784388
scalar abilene_cost_network.node[9].content_store 	xi[9] 	0.025
scalar abilene_cost_network.node[10].core_layer 	interests[10] 	217208
scalar abilene_cost_network.node[10].core_layer 	data[10] 	208372
scalar abilene_cost_network.node[10].content_store 	p_hit[10] 	0.04067990129277
scalar abilene_cost_network.node[10].content_store 	hits[10] 	8836
scalar abilene_cost_network.node[10].content_store 	misses[10] 	208372
scalar abilene_cost_network.node[10].content_store 	decision_yes[10] 	437
scalar abilene_cost_network.node[10].content_store 	decision_no[10] 	207935
scalar abilene_cost_network.node[10].content_store 	decision_ratio[10] 	0.0020972107576834
scalar abilene_cost_network.node[10].content_store 	correction_factor[10] 	0.014560475784388
scalar abilene_cost_network.node[10].content_store 	xi[10] 	0.025
scalar abilene_cost_network.node[11].core_layer 	interests[11] 	154239
scalar abilene_cost_network.node[11].core_layer 	repo_load[11] 	154239
scalar abilene_cost_network.node[11].core_layer 	data[11] 	0
scalar abilene_cost_network.node[11].content_store 	p_hit[11] 	0
scalar abilene_cost_network.node[11].content_store 	hits[11] 	0
scalar abilene_cost_network.node[11].content_store 	misses[11] 	154239
scalar abilene_cost_network.node[11].content_store 	decision_yes[11] 	0
scalar abilene_cost_network.node[11].content_store 	decision_no[11] 	154239
scalar abilene_cost_network.node[11].content_store 	decision_ratio[11] 	0
scalar abilene_cost_network.node[12].core_layer 	interests[12] 	82285
scalar abilene_cost_network.node[12].core_layer 	repo_load[12] 	82285
scalar abilene_cost_network.node[12].core_layer 	data[12] 	0
scalar abilene_cost_network.node[12].content_store 	p_hit[12] 	0
scalar abilene_cost_network.node[12].content_store 	hits[12] 	0
scalar abilene_cost_network.node[12].content_store 	misses[12] 	82285
scalar abilene_cost_network.node[12].content_store 	decision_yes[12] 	0
scalar abilene_cost_network.node[12].content_store 	decision_no[12] 	82285
scalar abilene_cost_network.node[12].content_store 	decision_ratio[12] 	0
scalar abilene_cost_network.node[13].core_layer 	interests[13] 	87776
scalar abilene_cost_network.node[13].core_layer 	repo_load[13] 	87776
scalar abilene_cost_network.node[13].core_layer 	data[13] 	0
scalar abilene_cost_network.node[13].content_store 	p_hit[13] 	0
scalar abilene_cost_network.node[13].content_store 	hits[13] 	0
scalar abilene_cost_network.node[13].content_store 	misses[13] 	87776
scalar abilene_cost_network.node[13].content_store 	decision_yes[13] 	0
scalar abilene_cost_network.node[13].content_store 	decision_no[13] 	87776
scalar abilene_cost_network.node[13].content_store 	decision_ratio[13] 	0
scalar abilene_cost_network.client[0] 	hdistance[0] 	2.8454247358538
scalar abilene_cost_network.client[0] 	downloads[0] 	178405
scalar abilene_cost_network.client[0] 	avg_time[0] 	0.012405142589
scalar abilene_cost_network.client[0] 	interests_sent[0] 	180233
scalar abilene_cost_network.client[5] 	hdistance[5] 	4.4952469278924
scalar abilene_cost_network.client[5] 	downloads[5] 	176833
scalar abilene_cost_network.client[5] 	avg_time[5] 	0.017409982201
scalar abilene_cost_network.client[5] 	interests_sent[5] 	179862
scalar abilene_cost_network.client[9] 	hdistance[9] 	2.6497156333928
scalar abilene_cost_network.client[9] 	downloads[9] 	177236
scalar abilene_cost_network.client[9] 	avg_time[9] 	0.010714016667
scalar abilene_cost_network.client[9] 	interests_sent[9] 	179300
