version 2
run General-5237-20140425-07:46:09-18048
attr D lce
attr F nrr
attr R lru
attr a 1.2
attr configname General
attr csize 9
attr ctlg 10^3
attr datetime 20140425-07:46:09
attr experiment General
attr inifile omnetpp.ini
attr iterationvars "$net=one_cache_scenario, $rep=13, $priceratiovalue=5, $a=1.2, $ctlg=10^3, $F=nrr, $ttl=1000, $D=lce, $R=lru, $csize=9"
attr iterationvars2 "$net=one_cache_scenario, $rep=13, $priceratiovalue=5, $a=1.2, $ctlg=10^3, $F=nrr, $ttl=1000, $D=lce, $R=lru, $csize=9, $repetition=0"
attr measurement "$net=one_cache_scenario, $rep=13, $priceratiovalue=5, $a=1.2, $ctlg=10^3, $F=nrr, $ttl=1000, $D=lce, $R=lru, $csize=9"
attr net one_cache_scenario
attr network networks.${net=one_cache_scenario}_network
attr priceratiovalue 5
attr processid 18048
attr rep 13
attr repetition 0
attr replication #0
attr resultdir results
attr runnumber 5237
attr seedset 13
attr ttl 1000

scalar . 	a 	1.2
scalar . 	csize 	9
scalar . 	priceratiovalue 	5
scalar . 	rep 	13
scalar . 	ttl 	1000
scalar one_cache_scenario_network.content_distribution 	repo-0 	3
scalar one_cache_scenario_network.content_distribution 	repo-1 	4
scalar one_cache_scenario_network.content_distribution 	client-0 	0
scalar one_cache_scenario_network.content_distribution 	repo-0_card 	508
scalar one_cache_scenario_network.content_distribution 	repo-1_card 	492
scalar one_cache_scenario_network.statistics 	p_hit 	0.17279092081197
scalar one_cache_scenario_network.statistics 	interests 	80042.4
scalar one_cache_scenario_network.statistics 	data 	44141.2
scalar one_cache_scenario_network.statistics 	hdistance 	1.2295187904583
scalar one_cache_scenario_network.statistics 	avg_time 	0
scalar one_cache_scenario_network.statistics 	downloads 	179506
scalar one_cache_scenario_network.statistics 	total_cost 	51170
scalar one_cache_scenario_network.statistics 	interests_sent 	179506
scalar one_cache_scenario_network.node[0].core_layer 	interests[0] 	179506
scalar one_cache_scenario_network.node[0].core_layer 	data[0] 	110353
scalar one_cache_scenario_network.node[0].core_layer 	repo_int[0] 	110353
scalar one_cache_scenario_network.node[0].content_store 	p_hit[0] 	0.38524060477087
scalar one_cache_scenario_network.node[0].content_store 	hits[0] 	69153
scalar one_cache_scenario_network.node[0].content_store 	misses[0] 	110353
scalar one_cache_scenario_network.node[0].content_store 	decision_yes[0] 	110353
scalar one_cache_scenario_network.node[0].content_store 	decision_no[0] 	0
scalar one_cache_scenario_network.node[1].core_layer 	interests[1] 	61185
scalar one_cache_scenario_network.node[1].core_layer 	data[1] 	61185
scalar one_cache_scenario_network.node[1].content_store 	p_hit[1] 	0
scalar one_cache_scenario_network.node[1].content_store 	hits[1] 	0
scalar one_cache_scenario_network.node[1].content_store 	misses[1] 	61185
scalar one_cache_scenario_network.node[1].content_store 	decision_yes[1] 	0
scalar one_cache_scenario_network.node[1].content_store 	decision_no[1] 	61185
scalar one_cache_scenario_network.node[2].core_layer 	interests[2] 	49168
scalar one_cache_scenario_network.node[2].core_layer 	data[2] 	49168
scalar one_cache_scenario_network.node[2].content_store 	p_hit[2] 	0
scalar one_cache_scenario_network.node[2].content_store 	hits[2] 	0
scalar one_cache_scenario_network.node[2].content_store 	misses[2] 	49168
scalar one_cache_scenario_network.node[2].content_store 	decision_yes[2] 	0
scalar one_cache_scenario_network.node[2].content_store 	decision_no[2] 	49168
scalar one_cache_scenario_network.node[3].core_layer 	interests[3] 	61185
scalar one_cache_scenario_network.node[3].core_layer 	repo_load[3] 	61185
scalar one_cache_scenario_network.node[3].core_layer 	data[3] 	0
scalar one_cache_scenario_network.node[3].content_store 	p_hit[3] 	0
scalar one_cache_scenario_network.node[3].content_store 	hits[3] 	0
scalar one_cache_scenario_network.node[3].content_store 	misses[3] 	61185
scalar one_cache_scenario_network.node[3].content_store 	decision_yes[3] 	0
scalar one_cache_scenario_network.node[3].content_store 	decision_no[3] 	61185
scalar one_cache_scenario_network.node[4].core_layer 	interests[4] 	49168
scalar one_cache_scenario_network.node[4].core_layer 	repo_load[4] 	49168
scalar one_cache_scenario_network.node[4].core_layer 	data[4] 	0
scalar one_cache_scenario_network.node[4].content_store 	p_hit[4] 	0
scalar one_cache_scenario_network.node[4].content_store 	hits[4] 	0
scalar one_cache_scenario_network.node[4].content_store 	misses[4] 	49168
scalar one_cache_scenario_network.node[4].content_store 	decision_yes[4] 	0
scalar one_cache_scenario_network.node[4].content_store 	decision_no[4] 	49168
scalar one_cache_scenario_network.client[0] 	hdistance[0] 	1.2295187904583
scalar one_cache_scenario_network.client[0] 	downloads[0] 	179506
scalar one_cache_scenario_network.client[0] 	avg_time[0] 	0
scalar one_cache_scenario_network.client[0] 	interests_sent[0] 	179506
