version 2
run General-527-20140502-02:07:36-9415
attr D fix0.005
attr F nrr
attr R lru
attr a 1
attr configname General
attr csize 1e3
attr ctlg 1e5
attr datetime 20140502-02:07:36
attr experiment General
attr inifile omnetpp.ini
attr iterationvars "$net=three_caches_scenario_3_links, $rep=1, $priceratiovalue=10, $weights=0.7_0.15_0.15, $a=1, $ctlg=1e5, $F=nrr, $ttl=1000, $D=fix0.005, $xi=1, $R=lru, $csize=1e3"
attr iterationvars2 "$net=three_caches_scenario_3_links, $rep=1, $priceratiovalue=10, $weights=0.7_0.15_0.15, $a=1, $ctlg=1e5, $F=nrr, $ttl=1000, $D=fix0.005, $xi=1, $R=lru, $csize=1e3, $repetition=0"
attr measurement "$net=three_caches_scenario_3_links, $rep=1, $priceratiovalue=10, $weights=0.7_0.15_0.15, $a=1, $ctlg=1e5, $F=nrr, $ttl=1000, $D=fix0.005, $xi=1, $R=lru, $csize=1e3"
attr net three_caches_scenario_3_links
attr network networks.${net=three_caches_scenario_3_links}_network
attr priceratiovalue 10
attr processid 9415
attr rep 1
attr repetition 0
attr replication #0
attr resultdir results
attr runnumber 527
attr seedset 1
attr ttl 1000
attr weights 0.7_0.15_0.15
attr xi 1

scalar . 	a 	1
scalar . 	csize 	1e3
scalar . 	ctlg 	1e5
scalar . 	priceratiovalue 	10
scalar . 	rep 	1
scalar . 	ttl 	1000
scalar . 	xi 	1
scalar three_caches_scenario_3_links_network.content_distribution 	repo-0 	4
scalar three_caches_scenario_3_links_network.content_distribution 	repo-1 	5
scalar three_caches_scenario_3_links_network.content_distribution 	repo-2 	6
scalar three_caches_scenario_3_links_network.content_distribution 	client-0 	0
scalar three_caches_scenario_3_links_network.content_distribution 	repo-0_card 	70018
scalar three_caches_scenario_3_links_network.content_distribution 	repo-1_card 	15023
scalar three_caches_scenario_3_links_network.content_distribution 	repo-2_card 	14959
scalar three_caches_scenario_3_links_network.statistics 	p_hit 	0.27401907898473
scalar three_caches_scenario_3_links_network.statistics 	interests 	50317.142857143
scalar three_caches_scenario_3_links_network.statistics 	data 	24574.857142857
scalar three_caches_scenario_3_links_network.statistics 	hdistance 	1.0743856689383
scalar three_caches_scenario_3_links_network.statistics 	avg_time 	0
scalar three_caches_scenario_3_links_network.statistics 	downloads 	180196
scalar three_caches_scenario_3_links_network.statistics 	total_cost 	119226
scalar three_caches_scenario_3_links_network.statistics 	total_replicas 	100000
scalar three_caches_scenario_3_links_network.statistics 	interests_sent 	180196
scalar three_caches_scenario_3_links_network.node[0].core_layer 	interests[0] 	180196
scalar three_caches_scenario_3_links_network.node[0].core_layer 	data[0] 	88343
scalar three_caches_scenario_3_links_network.node[0].core_layer 	repo_int[0] 	83681
scalar three_caches_scenario_3_links_network.node[0].content_store 	p_hit[0] 	0.50973939488113
scalar three_caches_scenario_3_links_network.node[0].content_store 	hits[0] 	91853
scalar three_caches_scenario_3_links_network.node[0].content_store 	misses[0] 	88343
scalar three_caches_scenario_3_links_network.node[0].content_store 	decision_yes[0] 	462
scalar three_caches_scenario_3_links_network.node[0].content_store 	decision_no[0] 	87881
scalar three_caches_scenario_3_links_network.node[1].core_layer 	interests[1] 	62105
scalar three_caches_scenario_3_links_network.node[1].core_layer 	data[1] 	62105
scalar three_caches_scenario_3_links_network.node[1].content_store 	p_hit[1] 	0
scalar three_caches_scenario_3_links_network.node[1].content_store 	hits[1] 	0
scalar three_caches_scenario_3_links_network.node[1].content_store 	misses[1] 	62105
scalar three_caches_scenario_3_links_network.node[1].content_store 	decision_yes[1] 	0
scalar three_caches_scenario_3_links_network.node[1].content_store 	decision_no[1] 	62105
scalar three_caches_scenario_3_links_network.node[2].core_layer 	interests[2] 	13190
scalar three_caches_scenario_3_links_network.node[2].core_layer 	data[2] 	10726
scalar three_caches_scenario_3_links_network.node[2].content_store 	p_hit[2] 	0.18680818802123
scalar three_caches_scenario_3_links_network.node[2].content_store 	hits[2] 	2464
scalar three_caches_scenario_3_links_network.node[2].content_store 	misses[2] 	10726
scalar three_caches_scenario_3_links_network.node[2].content_store 	decision_yes[2] 	45
scalar three_caches_scenario_3_links_network.node[2].content_store 	decision_no[2] 	10681
scalar three_caches_scenario_3_links_network.node[3].core_layer 	interests[3] 	13048
scalar three_caches_scenario_3_links_network.node[3].core_layer 	data[3] 	10850
scalar three_caches_scenario_3_links_network.node[3].content_store 	p_hit[3] 	0.16845493562232
scalar three_caches_scenario_3_links_network.node[3].content_store 	hits[3] 	2198
scalar three_caches_scenario_3_links_network.node[3].content_store 	misses[3] 	10850
scalar three_caches_scenario_3_links_network.node[3].content_store 	decision_yes[3] 	44
scalar three_caches_scenario_3_links_network.node[3].content_store 	decision_no[3] 	10806
scalar three_caches_scenario_3_links_network.node[4].core_layer 	interests[4] 	62105
scalar three_caches_scenario_3_links_network.node[4].core_layer 	repo_load[4] 	62105
scalar three_caches_scenario_3_links_network.node[4].core_layer 	data[4] 	0
scalar three_caches_scenario_3_links_network.node[4].content_store 	p_hit[4] 	0
scalar three_caches_scenario_3_links_network.node[4].content_store 	hits[4] 	0
scalar three_caches_scenario_3_links_network.node[4].content_store 	misses[4] 	62105
scalar three_caches_scenario_3_links_network.node[4].content_store 	decision_yes[4] 	0
scalar three_caches_scenario_3_links_network.node[4].content_store 	decision_no[4] 	62105
scalar three_caches_scenario_3_links_network.node[5].core_layer 	interests[5] 	10726
scalar three_caches_scenario_3_links_network.node[5].core_layer 	repo_load[5] 	10726
scalar three_caches_scenario_3_links_network.node[5].core_layer 	data[5] 	0
scalar three_caches_scenario_3_links_network.node[5].content_store 	p_hit[5] 	0
scalar three_caches_scenario_3_links_network.node[5].content_store 	hits[5] 	0
scalar three_caches_scenario_3_links_network.node[5].content_store 	misses[5] 	10726
scalar three_caches_scenario_3_links_network.node[5].content_store 	decision_yes[5] 	0
scalar three_caches_scenario_3_links_network.node[5].content_store 	decision_no[5] 	10726
scalar three_caches_scenario_3_links_network.node[6].core_layer 	interests[6] 	10850
scalar three_caches_scenario_3_links_network.node[6].core_layer 	repo_load[6] 	10850
scalar three_caches_scenario_3_links_network.node[6].core_layer 	data[6] 	0
scalar three_caches_scenario_3_links_network.node[6].content_store 	p_hit[6] 	0
scalar three_caches_scenario_3_links_network.node[6].content_store 	hits[6] 	0
scalar three_caches_scenario_3_links_network.node[6].content_store 	misses[6] 	10850
scalar three_caches_scenario_3_links_network.node[6].content_store 	decision_yes[6] 	0
scalar three_caches_scenario_3_links_network.node[6].content_store 	decision_no[6] 	10850
scalar three_caches_scenario_3_links_network.client[0] 	hdistance[0] 	1.0743856689383
scalar three_caches_scenario_3_links_network.client[0] 	downloads[0] 	180196
scalar three_caches_scenario_3_links_network.client[0] 	avg_time[0] 	0
scalar three_caches_scenario_3_links_network.client[0] 	interests_sent[0] 	180196
