version 2
run General-21-20140518-08:59:45-2942
attr D fix0.01
attr F nrr
attr R lru
attr a 1
attr configname General
attr csize 1e2
attr ctlg 1e4
attr datetime 20140518-08:59:45
attr experiment General
attr inifile omnetpp.ini
attr iterationvars "$net=one_cache_scenario_3_links, $rep=14, $priceratiovalue=10, $weights=0.333_0.333_0.334, $a=1, $ctlg=1e4, $F=nrr, $ttl=1000, $D=fix0.01, $xi=1, $R=lru, $csize=1e2, $q=0"
attr iterationvars2 "$net=one_cache_scenario_3_links, $rep=14, $priceratiovalue=10, $weights=0.333_0.333_0.334, $a=1, $ctlg=1e4, $F=nrr, $ttl=1000, $D=fix0.01, $xi=1, $R=lru, $csize=1e2, $q=0, $repetition=0"
attr measurement "$net=one_cache_scenario_3_links, $rep=14, $priceratiovalue=10, $weights=0.333_0.333_0.334, $a=1, $ctlg=1e4, $F=nrr, $ttl=1000, $D=fix0.01, $xi=1, $R=lru, $csize=1e2, $q=0"
attr net one_cache_scenario_3_links
attr network networks.${net=one_cache_scenario_3_links}_network
attr priceratiovalue 10
attr processid 2942
attr q 0
attr rep 14
attr repetition 0
attr replication #0
attr resultdir results
attr runnumber 21
attr seedset 14
attr ttl 1000
attr weights 0.333_0.333_0.334
attr xi 1

scalar . 	a 	1
scalar . 	csize 	1e2
scalar . 	ctlg 	1e4
scalar . 	priceratiovalue 	10
scalar . 	q 	0
scalar . 	rep 	14
scalar . 	ttl 	1000
scalar . 	xi 	1
scalar one_cache_scenario_3_links_network.content_distribution 	repo-0 	4
scalar one_cache_scenario_3_links_network.content_distribution 	repo-1 	5
scalar one_cache_scenario_3_links_network.content_distribution 	repo-2 	6
scalar one_cache_scenario_3_links_network.content_distribution 	client-0 	0
scalar one_cache_scenario_3_links_network.content_distribution 	repo-0_card 	3287
scalar one_cache_scenario_3_links_network.content_distribution 	repo-1_card 	3328
scalar one_cache_scenario_3_links_network.content_distribution 	repo-2_card 	3385
scalar one_cache_scenario_3_links_network.statistics 	p_hit 	0.20623425692695
scalar one_cache_scenario_3_links_network.statistics 	interests 	5444.5714285714
scalar one_cache_scenario_3_links_network.statistics 	data 	2881.1428571429
scalar one_cache_scenario_3_links_network.statistics 	hdistance 	1.1239411502452
scalar one_cache_scenario_3_links_network.statistics 	avg_time 	0
scalar one_cache_scenario_3_links_network.statistics 	downloads 	17944
scalar one_cache_scenario_3_links_network.statistics 	total_cost 	41603
scalar one_cache_scenario_3_links_network.statistics 	total_replicas 	10000
scalar one_cache_scenario_3_links_network.statistics 	interests_sent 	17944
scalar one_cache_scenario_3_links_network.node[0].core_layer 	interests[0] 	17944
scalar one_cache_scenario_3_links_network.node[0].core_layer 	data[0] 	10084
scalar one_cache_scenario_3_links_network.node[0].core_layer 	repo_int[0] 	10084
scalar one_cache_scenario_3_links_network.node[0].content_store 	p_hit[0] 	0.4380294248774
scalar one_cache_scenario_3_links_network.node[0].content_store 	hits[0] 	7860
scalar one_cache_scenario_3_links_network.node[0].content_store 	misses[0] 	10084
scalar one_cache_scenario_3_links_network.node[0].content_store 	decision_yes[0] 	94
scalar one_cache_scenario_3_links_network.node[0].content_store 	decision_no[0] 	9990
scalar one_cache_scenario_3_links_network.node[0].content_store 	decision_ratio[0] 	0.0093216977389925
scalar one_cache_scenario_3_links_network.node[1].core_layer 	interests[1] 	3095
scalar one_cache_scenario_3_links_network.node[1].core_layer 	data[1] 	3095
scalar one_cache_scenario_3_links_network.node[1].content_store 	p_hit[1] 	0
scalar one_cache_scenario_3_links_network.node[1].content_store 	hits[1] 	0
scalar one_cache_scenario_3_links_network.node[1].content_store 	misses[1] 	3095
scalar one_cache_scenario_3_links_network.node[1].content_store 	decision_yes[1] 	0
scalar one_cache_scenario_3_links_network.node[1].content_store 	decision_no[1] 	3095
scalar one_cache_scenario_3_links_network.node[1].content_store 	decision_ratio[1] 	0
scalar one_cache_scenario_3_links_network.node[2].core_layer 	interests[2] 	3143
scalar one_cache_scenario_3_links_network.node[2].core_layer 	data[2] 	3143
scalar one_cache_scenario_3_links_network.node[2].content_store 	p_hit[2] 	0
scalar one_cache_scenario_3_links_network.node[2].content_store 	hits[2] 	0
scalar one_cache_scenario_3_links_network.node[2].content_store 	misses[2] 	3143
scalar one_cache_scenario_3_links_network.node[2].content_store 	decision_yes[2] 	0
scalar one_cache_scenario_3_links_network.node[2].content_store 	decision_no[2] 	3143
scalar one_cache_scenario_3_links_network.node[2].content_store 	decision_ratio[2] 	0
scalar one_cache_scenario_3_links_network.node[3].core_layer 	interests[3] 	3846
scalar one_cache_scenario_3_links_network.node[3].core_layer 	data[3] 	3846
scalar one_cache_scenario_3_links_network.node[3].content_store 	p_hit[3] 	0
scalar one_cache_scenario_3_links_network.node[3].content_store 	hits[3] 	0
scalar one_cache_scenario_3_links_network.node[3].content_store 	misses[3] 	3846
scalar one_cache_scenario_3_links_network.node[3].content_store 	decision_yes[3] 	0
scalar one_cache_scenario_3_links_network.node[3].content_store 	decision_no[3] 	3846
scalar one_cache_scenario_3_links_network.node[3].content_store 	decision_ratio[3] 	0
scalar one_cache_scenario_3_links_network.node[4].core_layer 	interests[4] 	3095
scalar one_cache_scenario_3_links_network.node[4].core_layer 	repo_load[4] 	3095
scalar one_cache_scenario_3_links_network.node[4].core_layer 	data[4] 	0
scalar one_cache_scenario_3_links_network.node[4].content_store 	p_hit[4] 	0
scalar one_cache_scenario_3_links_network.node[4].content_store 	hits[4] 	0
scalar one_cache_scenario_3_links_network.node[4].content_store 	misses[4] 	3095
scalar one_cache_scenario_3_links_network.node[4].content_store 	decision_yes[4] 	0
scalar one_cache_scenario_3_links_network.node[4].content_store 	decision_no[4] 	3095
scalar one_cache_scenario_3_links_network.node[4].content_store 	decision_ratio[4] 	0
scalar one_cache_scenario_3_links_network.node[5].core_layer 	interests[5] 	3143
scalar one_cache_scenario_3_links_network.node[5].core_layer 	repo_load[5] 	3143
scalar one_cache_scenario_3_links_network.node[5].core_layer 	data[5] 	0
scalar one_cache_scenario_3_links_network.node[5].content_store 	p_hit[5] 	0
scalar one_cache_scenario_3_links_network.node[5].content_store 	hits[5] 	0
scalar one_cache_scenario_3_links_network.node[5].content_store 	misses[5] 	3143
scalar one_cache_scenario_3_links_network.node[5].content_store 	decision_yes[5] 	0
scalar one_cache_scenario_3_links_network.node[5].content_store 	decision_no[5] 	3143
scalar one_cache_scenario_3_links_network.node[5].content_store 	decision_ratio[5] 	0
scalar one_cache_scenario_3_links_network.node[6].core_layer 	interests[6] 	3846
scalar one_cache_scenario_3_links_network.node[6].core_layer 	repo_load[6] 	3846
scalar one_cache_scenario_3_links_network.node[6].core_layer 	data[6] 	0
scalar one_cache_scenario_3_links_network.node[6].content_store 	p_hit[6] 	0
scalar one_cache_scenario_3_links_network.node[6].content_store 	hits[6] 	0
scalar one_cache_scenario_3_links_network.node[6].content_store 	misses[6] 	3846
scalar one_cache_scenario_3_links_network.node[6].content_store 	decision_yes[6] 	0
scalar one_cache_scenario_3_links_network.node[6].content_store 	decision_no[6] 	3846
scalar one_cache_scenario_3_links_network.node[6].content_store 	decision_ratio[6] 	0
scalar one_cache_scenario_3_links_network.client[0] 	hdistance[0] 	1.1239411502452
scalar one_cache_scenario_3_links_network.client[0] 	downloads[0] 	17944
scalar one_cache_scenario_3_links_network.client[0] 	avg_time[0] 	0
scalar one_cache_scenario_3_links_network.client[0] 	interests_sent[0] 	17944
