version 2
run General-27-20140518-08:59:51-2948
attr D fix0.01
attr F nrr
attr R lru
attr a 1
attr configname General
attr csize 1e2
attr ctlg 1e4
attr datetime 20140518-08:59:51
attr experiment General
attr inifile omnetpp.ini
attr iterationvars "$net=one_cache_scenario_3_links, $rep=17, $priceratiovalue=10, $weights=0.333_0.333_0.334, $a=1, $ctlg=1e4, $F=nrr, $ttl=1000, $D=fix0.01, $xi=1, $R=lru, $csize=1e2, $q=0"
attr iterationvars2 "$net=one_cache_scenario_3_links, $rep=17, $priceratiovalue=10, $weights=0.333_0.333_0.334, $a=1, $ctlg=1e4, $F=nrr, $ttl=1000, $D=fix0.01, $xi=1, $R=lru, $csize=1e2, $q=0, $repetition=0"
attr measurement "$net=one_cache_scenario_3_links, $rep=17, $priceratiovalue=10, $weights=0.333_0.333_0.334, $a=1, $ctlg=1e4, $F=nrr, $ttl=1000, $D=fix0.01, $xi=1, $R=lru, $csize=1e2, $q=0"
attr net one_cache_scenario_3_links
attr network networks.${net=one_cache_scenario_3_links}_network
attr priceratiovalue 10
attr processid 2948
attr q 0
attr rep 17
attr repetition 0
attr replication #0
attr resultdir results
attr runnumber 27
attr seedset 17
attr ttl 1000
attr weights 0.333_0.333_0.334
attr xi 1

scalar . 	a 	1
scalar . 	csize 	1e2
scalar . 	ctlg 	1e4
scalar . 	priceratiovalue 	10
scalar . 	q 	0
scalar . 	rep 	17
scalar . 	ttl 	1000
scalar . 	xi 	1
scalar one_cache_scenario_3_links_network.content_distribution 	repo-0 	4
scalar one_cache_scenario_3_links_network.content_distribution 	repo-1 	5
scalar one_cache_scenario_3_links_network.content_distribution 	repo-2 	6
scalar one_cache_scenario_3_links_network.content_distribution 	client-0 	0
scalar one_cache_scenario_3_links_network.content_distribution 	repo-0_card 	3300
scalar one_cache_scenario_3_links_network.content_distribution 	repo-1_card 	3375
scalar one_cache_scenario_3_links_network.content_distribution 	repo-2_card 	3325
scalar one_cache_scenario_3_links_network.statistics 	p_hit 	0.22212346477052
scalar one_cache_scenario_3_links_network.statistics 	interests 	5304
scalar one_cache_scenario_3_links_network.statistics 	data 	2750.5714285714
scalar one_cache_scenario_3_links_network.statistics 	hdistance 	1.077207116482
scalar one_cache_scenario_3_links_network.statistics 	avg_time 	0
scalar one_cache_scenario_3_links_network.statistics 	downloads 	17874
scalar one_cache_scenario_3_links_network.statistics 	total_cost 	36428
scalar one_cache_scenario_3_links_network.statistics 	total_replicas 	10000
scalar one_cache_scenario_3_links_network.statistics 	interests_sent 	17874
scalar one_cache_scenario_3_links_network.node[0].core_layer 	interests[0] 	17874
scalar one_cache_scenario_3_links_network.node[0].core_layer 	data[0] 	9627
scalar one_cache_scenario_3_links_network.node[0].core_layer 	repo_int[0] 	9627
scalar one_cache_scenario_3_links_network.node[0].content_store 	p_hit[0] 	0.46139644175898
scalar one_cache_scenario_3_links_network.node[0].content_store 	hits[0] 	8247
scalar one_cache_scenario_3_links_network.node[0].content_store 	misses[0] 	9627
scalar one_cache_scenario_3_links_network.node[0].content_store 	decision_yes[0] 	95
scalar one_cache_scenario_3_links_network.node[0].content_store 	decision_no[0] 	9532
scalar one_cache_scenario_3_links_network.node[0].content_store 	decision_ratio[0] 	0.009868079360133
scalar one_cache_scenario_3_links_network.node[1].core_layer 	interests[1] 	2737
scalar one_cache_scenario_3_links_network.node[1].core_layer 	data[1] 	2737
scalar one_cache_scenario_3_links_network.node[1].content_store 	p_hit[1] 	0
scalar one_cache_scenario_3_links_network.node[1].content_store 	hits[1] 	0
scalar one_cache_scenario_3_links_network.node[1].content_store 	misses[1] 	2737
scalar one_cache_scenario_3_links_network.node[1].content_store 	decision_yes[1] 	0
scalar one_cache_scenario_3_links_network.node[1].content_store 	decision_no[1] 	2737
scalar one_cache_scenario_3_links_network.node[1].content_store 	decision_ratio[1] 	0
scalar one_cache_scenario_3_links_network.node[2].core_layer 	interests[2] 	3608
scalar one_cache_scenario_3_links_network.node[2].core_layer 	data[2] 	3608
scalar one_cache_scenario_3_links_network.node[2].content_store 	p_hit[2] 	0
scalar one_cache_scenario_3_links_network.node[2].content_store 	hits[2] 	0
scalar one_cache_scenario_3_links_network.node[2].content_store 	misses[2] 	3608
scalar one_cache_scenario_3_links_network.node[2].content_store 	decision_yes[2] 	0
scalar one_cache_scenario_3_links_network.node[2].content_store 	decision_no[2] 	3608
scalar one_cache_scenario_3_links_network.node[2].content_store 	decision_ratio[2] 	0
scalar one_cache_scenario_3_links_network.node[3].core_layer 	interests[3] 	3282
scalar one_cache_scenario_3_links_network.node[3].core_layer 	data[3] 	3282
scalar one_cache_scenario_3_links_network.node[3].content_store 	p_hit[3] 	0
scalar one_cache_scenario_3_links_network.node[3].content_store 	hits[3] 	0
scalar one_cache_scenario_3_links_network.node[3].content_store 	misses[3] 	3282
scalar one_cache_scenario_3_links_network.node[3].content_store 	decision_yes[3] 	0
scalar one_cache_scenario_3_links_network.node[3].content_store 	decision_no[3] 	3282
scalar one_cache_scenario_3_links_network.node[3].content_store 	decision_ratio[3] 	0
scalar one_cache_scenario_3_links_network.node[4].core_layer 	interests[4] 	2737
scalar one_cache_scenario_3_links_network.node[4].core_layer 	repo_load[4] 	2737
scalar one_cache_scenario_3_links_network.node[4].core_layer 	data[4] 	0
scalar one_cache_scenario_3_links_network.node[4].content_store 	p_hit[4] 	0
scalar one_cache_scenario_3_links_network.node[4].content_store 	hits[4] 	0
scalar one_cache_scenario_3_links_network.node[4].content_store 	misses[4] 	2737
scalar one_cache_scenario_3_links_network.node[4].content_store 	decision_yes[4] 	0
scalar one_cache_scenario_3_links_network.node[4].content_store 	decision_no[4] 	2737
scalar one_cache_scenario_3_links_network.node[4].content_store 	decision_ratio[4] 	0
scalar one_cache_scenario_3_links_network.node[5].core_layer 	interests[5] 	3608
scalar one_cache_scenario_3_links_network.node[5].core_layer 	repo_load[5] 	3608
scalar one_cache_scenario_3_links_network.node[5].core_layer 	data[5] 	0
scalar one_cache_scenario_3_links_network.node[5].content_store 	p_hit[5] 	0
scalar one_cache_scenario_3_links_network.node[5].content_store 	hits[5] 	0
scalar one_cache_scenario_3_links_network.node[5].content_store 	misses[5] 	3608
scalar one_cache_scenario_3_links_network.node[5].content_store 	decision_yes[5] 	0
scalar one_cache_scenario_3_links_network.node[5].content_store 	decision_no[5] 	3608
scalar one_cache_scenario_3_links_network.node[5].content_store 	decision_ratio[5] 	0
scalar one_cache_scenario_3_links_network.node[6].core_layer 	interests[6] 	3282
scalar one_cache_scenario_3_links_network.node[6].core_layer 	repo_load[6] 	3282
scalar one_cache_scenario_3_links_network.node[6].core_layer 	data[6] 	0
scalar one_cache_scenario_3_links_network.node[6].content_store 	p_hit[6] 	0
scalar one_cache_scenario_3_links_network.node[6].content_store 	hits[6] 	0
scalar one_cache_scenario_3_links_network.node[6].content_store 	misses[6] 	3282
scalar one_cache_scenario_3_links_network.node[6].content_store 	decision_yes[6] 	0
scalar one_cache_scenario_3_links_network.node[6].content_store 	decision_no[6] 	3282
scalar one_cache_scenario_3_links_network.node[6].content_store 	decision_ratio[6] 	0
scalar one_cache_scenario_3_links_network.client[0] 	hdistance[0] 	1.077207116482
scalar one_cache_scenario_3_links_network.client[0] 	downloads[0] 	17874
scalar one_cache_scenario_3_links_network.client[0] 	avg_time[0] 	0
scalar one_cache_scenario_3_links_network.client[0] 	interests_sent[0] 	17874
