version 2
run General-0-20140623-19:24:48-20884
attr D lce
attr F nrr
attr R lru
attr a 1
attr configname General
attr csize 1e6
attr ctlg 1e5
attr datetime 20140623-19:24:48
attr experiment General
attr inifile omnetpp.ini
attr iterationvars "$net=abilene_cost, $rep=1, $priceratiovalue=10, $weights=0.333_0.333_0.334, $lambda=100, $a=1, $ctlg=1e5, $F=nrr, $ttl=1000, $D=lce, $xi=1, $R=lru, $csize=1e6, $pricebits=0, $mytime=1800"
attr iterationvars2 "$net=abilene_cost, $rep=1, $priceratiovalue=10, $weights=0.333_0.333_0.334, $lambda=100, $a=1, $ctlg=1e5, $F=nrr, $ttl=1000, $D=lce, $xi=1, $R=lru, $csize=1e6, $pricebits=0, $mytime=1800, $repetition=0"
attr lambda 100
attr measurement "$net=abilene_cost, $rep=1, $priceratiovalue=10, $weights=0.333_0.333_0.334, $lambda=100, $a=1, $ctlg=1e5, $F=nrr, $ttl=1000, $D=lce, $xi=1, $R=lru, $csize=1e6, $pricebits=0, $mytime=1800"
attr mytime 1800
attr net abilene_cost
attr network networks.${net=abilene_cost}_network
attr pricebits 0
attr priceratiovalue 10
attr processid 20884
attr rep 1
attr repetition 0
attr replication #0
attr resultdir results
attr runnumber 0
attr seedset 1
attr ttl 1000
attr weights 0.333_0.333_0.334
attr xi 1

scalar . 	a 	1
scalar . 	csize 	1e6
scalar . 	ctlg 	1e5
scalar . 	lambda 	100
scalar . 	mytime 	1800
scalar . 	pricebits 	0
scalar . 	priceratiovalue 	10
scalar . 	rep 	1
scalar . 	ttl 	1000
scalar . 	xi 	1
scalar abilene_cost_network.content_distribution 	repo-0 	11
scalar abilene_cost_network.content_distribution 	repo-1 	12
scalar abilene_cost_network.content_distribution 	repo-2 	13
scalar abilene_cost_network.content_distribution 	client-0 	5
scalar abilene_cost_network.content_distribution 	client-1 	0
scalar abilene_cost_network.content_distribution 	client-2 	9
scalar abilene_cost_network.content_distribution 	repo-0_card 	33396
scalar abilene_cost_network.content_distribution 	repo-1_card 	33039
scalar abilene_cost_network.content_distribution 	repo-2_card 	33565
scalar abilene_cost_network.statistics 	repo_popularity[0] 	0.28686251265602
scalar abilene_cost_network.statistics 	repo_popularity[1] 	0.2886063426465
scalar abilene_cost_network.statistics 	repo_popularity[2] 	0.42453114469748
scalar abilene_cost_network.statistics 	stabilization_time 	36180
scalar abilene_cost_network.node[1].face$o[4].channel 	price[1] 	0
scalar abilene_cost_network.node[1].face$o[4].channel 	represented_price[1] 	0
scalar abilene_cost_network.node[7].face$o[4].channel 	price[7] 	0
scalar abilene_cost_network.node[7].face$o[4].channel 	represented_price[7] 	0
scalar abilene_cost_network.node[10].face$o[4].channel 	price[10] 	0
scalar abilene_cost_network.node[10].face$o[4].channel 	represented_price[10] 	0
scalar abilene_cost_network.node[11].face$o[1].channel 	price[11] 	0
scalar abilene_cost_network.node[11].face$o[1].channel 	represented_price[11] 	0
scalar abilene_cost_network.node[12].face$o[1].channel 	price[12] 	1
scalar abilene_cost_network.node[12].face$o[1].channel 	represented_price[12] 	1
scalar abilene_cost_network.node[13].face$o[1].channel 	price[13] 	10
scalar abilene_cost_network.node[13].face$o[1].channel 	represented_price[13] 	10
scalar abilene_cost_network.statistics 	p_hit 	0.98862409774795
scalar abilene_cost_network.statistics 	interests 	38910.571428571
scalar abilene_cost_network.statistics 	data 	442.57142857143
scalar abilene_cost_network.statistics 	hdistance 	0.011507459156927
scalar abilene_cost_network.statistics 	avg_time 	8.0761501e-05
scalar abilene_cost_network.statistics 	downloads 	538552
scalar abilene_cost_network.statistics 	total_cost 	0
scalar abilene_cost_network.statistics 	total_replicas 	100000
scalar abilene_cost_network.statistics 	inner_hit 	0.99999814316909
scalar abilene_cost_network.statistics 	interests_sent 	538552
scalar abilene_cost_network.node[0].core_layer 	interests[0] 	179716
scalar abilene_cost_network.node[0].core_layer 	data[0] 	1832
scalar abilene_cost_network.node[0].core_layer 	repo_int[0] 	1
scalar abilene_cost_network.node[0].content_store 	p_hit[0] 	0.98980613857419
scalar abilene_cost_network.node[0].content_store 	hits[0] 	177884
scalar abilene_cost_network.node[0].content_store 	misses[0] 	1832
scalar abilene_cost_network.node[0].content_store 	decision_yes[0] 	1832
scalar abilene_cost_network.node[0].content_store 	decision_no[0] 	0
scalar abilene_cost_network.node[0].content_store 	decision_ratio[0] 	1
scalar abilene_cost_network.node[1].core_layer 	interests[1] 	885
scalar abilene_cost_network.node[1].core_layer 	data[1] 	21
scalar abilene_cost_network.node[1].content_store 	p_hit[1] 	0.97627118644068
scalar abilene_cost_network.node[1].content_store 	hits[1] 	864
scalar abilene_cost_network.node[1].content_store 	misses[1] 	21
scalar abilene_cost_network.node[1].content_store 	decision_yes[1] 	21
scalar abilene_cost_network.node[1].content_store 	decision_no[1] 	0
scalar abilene_cost_network.node[1].content_store 	decision_ratio[1] 	1
scalar abilene_cost_network.node[2].core_layer 	interests[2] 	93
scalar abilene_cost_network.node[2].core_layer 	data[2] 	67
scalar abilene_cost_network.node[2].content_store 	p_hit[2] 	0.27956989247312
scalar abilene_cost_network.node[2].content_store 	hits[2] 	26
scalar abilene_cost_network.node[2].content_store 	misses[2] 	67
scalar abilene_cost_network.node[2].content_store 	decision_yes[2] 	67
scalar abilene_cost_network.node[2].content_store 	decision_no[2] 	0
scalar abilene_cost_network.node[2].content_store 	decision_ratio[2] 	1
scalar abilene_cost_network.node[3].core_layer 	interests[3] 	72
scalar abilene_cost_network.node[3].core_layer 	data[3] 	62
scalar abilene_cost_network.node[3].content_store 	p_hit[3] 	0.13888888888889
scalar abilene_cost_network.node[3].content_store 	hits[3] 	10
scalar abilene_cost_network.node[3].content_store 	misses[3] 	62
scalar abilene_cost_network.node[3].content_store 	decision_yes[3] 	62
scalar abilene_cost_network.node[3].content_store 	decision_no[3] 	0
scalar abilene_cost_network.node[3].content_store 	decision_ratio[3] 	1
scalar abilene_cost_network.node[4].core_layer 	interests[4] 	880
scalar abilene_cost_network.node[4].core_layer 	data[4] 	70
scalar abilene_cost_network.node[4].content_store 	p_hit[4] 	0.92045454545455
scalar abilene_cost_network.node[4].content_store 	hits[4] 	810
scalar abilene_cost_network.node[4].content_store 	misses[4] 	70
scalar abilene_cost_network.node[4].content_store 	decision_yes[4] 	70
scalar abilene_cost_network.node[4].content_store 	decision_no[4] 	0
scalar abilene_cost_network.node[4].content_store 	decision_ratio[4] 	1
scalar abilene_cost_network.node[5].core_layer 	interests[5] 	179350
scalar abilene_cost_network.node[5].core_layer 	data[5] 	1842
scalar abilene_cost_network.node[5].content_store 	p_hit[5] 	0.98972957903541
scalar abilene_cost_network.node[5].content_store 	hits[5] 	177508
scalar abilene_cost_network.node[5].content_store 	misses[5] 	1842
scalar abilene_cost_network.node[5].content_store 	decision_yes[5] 	1842
scalar abilene_cost_network.node[5].content_store 	decision_no[5] 	0
scalar abilene_cost_network.node[5].content_store 	decision_ratio[5] 	1
scalar abilene_cost_network.node[6].core_layer 	interests[6] 	962
scalar abilene_cost_network.node[6].core_layer 	data[6] 	113
scalar abilene_cost_network.node[6].content_store 	p_hit[6] 	0.88253638253638
scalar abilene_cost_network.node[6].content_store 	hits[6] 	849
scalar abilene_cost_network.node[6].content_store 	misses[6] 	113
scalar abilene_cost_network.node[6].content_store 	decision_yes[6] 	113
scalar abilene_cost_network.node[6].content_store 	decision_no[6] 	0
scalar abilene_cost_network.node[6].content_store 	decision_ratio[6] 	1
scalar abilene_cost_network.node[7].core_layer 	interests[7] 	133
scalar abilene_cost_network.node[7].core_layer 	data[7] 	64
scalar abilene_cost_network.node[7].content_store 	p_hit[7] 	0.5187969924812
scalar abilene_cost_network.node[7].content_store 	hits[7] 	69
scalar abilene_cost_network.node[7].content_store 	misses[7] 	64
scalar abilene_cost_network.node[7].content_store 	decision_yes[7] 	64
scalar abilene_cost_network.node[7].content_store 	decision_no[7] 	0
scalar abilene_cost_network.node[7].content_store 	decision_ratio[7] 	1
scalar abilene_cost_network.node[8].core_layer 	interests[8] 	733
scalar abilene_cost_network.node[8].core_layer 	data[8] 	108
scalar abilene_cost_network.node[8].content_store 	p_hit[8] 	0.85266030013643
scalar abilene_cost_network.node[8].content_store 	hits[8] 	625
scalar abilene_cost_network.node[8].content_store 	misses[8] 	108
scalar abilene_cost_network.node[8].content_store 	decision_yes[8] 	108
scalar abilene_cost_network.node[8].content_store 	decision_no[8] 	0
scalar abilene_cost_network.node[8].content_store 	decision_ratio[8] 	1
scalar abilene_cost_network.node[9].core_layer 	interests[9] 	179633
scalar abilene_cost_network.node[9].core_layer 	data[9] 	1896
scalar abilene_cost_network.node[9].content_store 	p_hit[9] 	0.98944514649313
scalar abilene_cost_network.node[9].content_store 	hits[9] 	177737
scalar abilene_cost_network.node[9].content_store 	misses[9] 	1896
scalar abilene_cost_network.node[9].content_store 	decision_yes[9] 	1896
scalar abilene_cost_network.node[9].content_store 	decision_no[9] 	0
scalar abilene_cost_network.node[9].content_store 	decision_ratio[9] 	1
scalar abilene_cost_network.node[10].core_layer 	interests[10] 	2290
scalar abilene_cost_network.node[10].core_layer 	data[10] 	121
scalar abilene_cost_network.node[10].content_store 	p_hit[10] 	0.9471615720524
scalar abilene_cost_network.node[10].content_store 	hits[10] 	2169
scalar abilene_cost_network.node[10].content_store 	misses[10] 	121
scalar abilene_cost_network.node[10].content_store 	decision_yes[10] 	121
scalar abilene_cost_network.node[10].content_store 	decision_no[10] 	0
scalar abilene_cost_network.node[10].content_store 	decision_ratio[10] 	1
scalar abilene_cost_network.node[11].core_layer 	interests[11] 	1
scalar abilene_cost_network.node[11].core_layer 	repo_load[11] 	1
scalar abilene_cost_network.node[11].core_layer 	data[11] 	0
scalar abilene_cost_network.node[11].content_store 	p_hit[11] 	0
scalar abilene_cost_network.node[11].content_store 	hits[11] 	0
scalar abilene_cost_network.node[11].content_store 	misses[11] 	1
scalar abilene_cost_network.node[11].content_store 	decision_yes[11] 	0
scalar abilene_cost_network.node[11].content_store 	decision_no[11] 	1
scalar abilene_cost_network.node[11].content_store 	decision_ratio[11] 	0
scalar abilene_cost_network.node[12].core_layer 	interests[12] 	0
scalar abilene_cost_network.node[12].core_layer 	data[12] 	0
scalar abilene_cost_network.node[12].content_store 	p_hit[12] 	-nan
scalar abilene_cost_network.node[12].content_store 	hits[12] 	0
scalar abilene_cost_network.node[12].content_store 	misses[12] 	0
scalar abilene_cost_network.node[12].content_store 	decision_yes[12] 	0
scalar abilene_cost_network.node[12].content_store 	decision_no[12] 	0
scalar abilene_cost_network.node[12].content_store 	decision_ratio[12] 	0
scalar abilene_cost_network.node[13].core_layer 	interests[13] 	0
scalar abilene_cost_network.node[13].core_layer 	data[13] 	0
scalar abilene_cost_network.node[13].content_store 	p_hit[13] 	-nan
scalar abilene_cost_network.node[13].content_store 	hits[13] 	0
scalar abilene_cost_network.node[13].content_store 	misses[13] 	0
scalar abilene_cost_network.node[13].content_store 	decision_yes[13] 	0
scalar abilene_cost_network.node[13].content_store 	decision_no[13] 	0
scalar abilene_cost_network.node[13].content_store 	decision_ratio[13] 	0
scalar abilene_cost_network.client[0] 	hdistance[0] 	0.010563047144137
scalar abilene_cost_network.client[0] 	downloads[0] 	179683
scalar abilene_cost_network.client[0] 	avg_time[0] 	9.3588637e-05
scalar abilene_cost_network.client[0] 	interests_sent[0] 	179683
scalar abilene_cost_network.client[5] 	hdistance[5] 	0.012751603010872
scalar abilene_cost_network.client[5] 	downloads[5] 	179350
scalar abilene_cost_network.client[5] 	avg_time[5] 	6.5964715e-05
scalar abilene_cost_network.client[5] 	interests_sent[5] 	179350
scalar abilene_cost_network.client[9] 	hdistance[9] 	0.011207727315772
scalar abilene_cost_network.client[9] 	downloads[9] 	179519
scalar abilene_cost_network.client[9] 	avg_time[9] 	8.2731151e-05
scalar abilene_cost_network.client[9] 	interests_sent[9] 	179519
