version 2
run General-10-20140426-22:18:54-15385
attr D fix0.0001
attr F nrr
attr R lru
attr a 1
attr configname General
attr csize 1000
attr ctlg 10^5
attr datetime 20140426-22:18:54
attr experiment General
attr inifile omnetpp.ini
attr iterationvars "$net=one_cache_scenario, $rep=1, $priceratiovalue=10, $a=1, $ctlg=10^5, $F=nrr, $ttl=1000, $D=fix0.0001, $xi=1, $R=lru, $csize=1000"
attr iterationvars2 "$net=one_cache_scenario, $rep=1, $priceratiovalue=10, $a=1, $ctlg=10^5, $F=nrr, $ttl=1000, $D=fix0.0001, $xi=1, $R=lru, $csize=1000, $repetition=0"
attr measurement "$net=one_cache_scenario, $rep=1, $priceratiovalue=10, $a=1, $ctlg=10^5, $F=nrr, $ttl=1000, $D=fix0.0001, $xi=1, $R=lru, $csize=1000"
attr net one_cache_scenario
attr network networks.${net=one_cache_scenario}_network
attr priceratiovalue 10
attr processid 15385
attr rep 1
attr repetition 0
attr replication #0
attr resultdir results
attr runnumber 10
attr seedset 1
attr ttl 1000
attr xi 1

scalar . 	a 	1
scalar . 	csize 	1000
scalar . 	priceratiovalue 	10
scalar . 	rep 	1
scalar . 	ttl 	1000
scalar . 	xi 	1
scalar one_cache_scenario_network.content_distribution 	repo-0 	3
scalar one_cache_scenario_network.content_distribution 	repo-1 	4
scalar one_cache_scenario_network.content_distribution 	client-0 	0
scalar one_cache_scenario_network.content_distribution 	repo-0_card 	49874
scalar one_cache_scenario_network.content_distribution 	repo-1_card 	50126
scalar one_cache_scenario_network.statistics 	p_hit 	0.18152440242444
scalar one_cache_scenario_network.statistics 	interests 	79094.6
scalar one_cache_scenario_network.statistics 	data 	43158
scalar one_cache_scenario_network.statistics 	hdistance 	1.2009483367931
scalar one_cache_scenario_network.statistics 	avg_time 	0
scalar one_cache_scenario_network.statistics 	downloads 	179683
scalar one_cache_scenario_network.statistics 	total_cost 	53058
scalar one_cache_scenario_network.statistics 	interests_sent 	179683
scalar one_cache_scenario_network.node[0].core_layer 	interests[0] 	179683
scalar one_cache_scenario_network.node[0].core_layer 	data[0] 	107895
scalar one_cache_scenario_network.node[0].core_layer 	repo_int[0] 	107895
scalar one_cache_scenario_network.node[0].content_store 	p_hit[0] 	0.39952583160343
scalar one_cache_scenario_network.node[0].content_store 	hits[0] 	71788
scalar one_cache_scenario_network.node[0].content_store 	misses[0] 	107895
scalar one_cache_scenario_network.node[0].content_store 	decision_yes[0] 	11
scalar one_cache_scenario_network.node[0].content_store 	decision_no[0] 	107884
scalar one_cache_scenario_network.node[1].core_layer 	interests[1] 	55034
scalar one_cache_scenario_network.node[1].core_layer 	data[1] 	55034
scalar one_cache_scenario_network.node[1].content_store 	p_hit[1] 	0
scalar one_cache_scenario_network.node[1].content_store 	hits[1] 	0
scalar one_cache_scenario_network.node[1].content_store 	misses[1] 	55034
scalar one_cache_scenario_network.node[1].content_store 	decision_yes[1] 	0
scalar one_cache_scenario_network.node[1].content_store 	decision_no[1] 	55034
scalar one_cache_scenario_network.node[2].core_layer 	interests[2] 	52861
scalar one_cache_scenario_network.node[2].core_layer 	data[2] 	52861
scalar one_cache_scenario_network.node[2].content_store 	p_hit[2] 	0
scalar one_cache_scenario_network.node[2].content_store 	hits[2] 	0
scalar one_cache_scenario_network.node[2].content_store 	misses[2] 	52861
scalar one_cache_scenario_network.node[2].content_store 	decision_yes[2] 	0
scalar one_cache_scenario_network.node[2].content_store 	decision_no[2] 	52861
scalar one_cache_scenario_network.node[3].core_layer 	interests[3] 	55034
scalar one_cache_scenario_network.node[3].core_layer 	repo_load[3] 	55034
scalar one_cache_scenario_network.node[3].core_layer 	data[3] 	0
scalar one_cache_scenario_network.node[3].content_store 	p_hit[3] 	0
scalar one_cache_scenario_network.node[3].content_store 	hits[3] 	0
scalar one_cache_scenario_network.node[3].content_store 	misses[3] 	55034
scalar one_cache_scenario_network.node[3].content_store 	decision_yes[3] 	0
scalar one_cache_scenario_network.node[3].content_store 	decision_no[3] 	55034
scalar one_cache_scenario_network.node[4].core_layer 	interests[4] 	52861
scalar one_cache_scenario_network.node[4].core_layer 	repo_load[4] 	52861
scalar one_cache_scenario_network.node[4].core_layer 	data[4] 	0
scalar one_cache_scenario_network.node[4].content_store 	p_hit[4] 	0
scalar one_cache_scenario_network.node[4].content_store 	hits[4] 	0
scalar one_cache_scenario_network.node[4].content_store 	misses[4] 	52861
scalar one_cache_scenario_network.node[4].content_store 	decision_yes[4] 	0
scalar one_cache_scenario_network.node[4].content_store 	decision_no[4] 	52861
scalar one_cache_scenario_network.client[0] 	hdistance[0] 	1.2009483367931
scalar one_cache_scenario_network.client[0] 	downloads[0] 	179683
scalar one_cache_scenario_network.client[0] 	avg_time[0] 	0
scalar one_cache_scenario_network.client[0] 	interests_sent[0] 	179683
