version 2
run General-10-20140625-18:14:05-12184
attr D costprobprodcorr0.01
attr F nrr
attr R lru
attr a 1
attr configname General
attr csize 1e3
attr ctlg 1e5
attr datetime 20140625-18:14:05
attr experiment General
attr inifile omnetpp.ini
attr iterationvars "$net=geant_cost, $rep=1, $priceratiovalue=10, $weights=0.333_0.333_0.334, $lambda=100, $a=1, $ctlg=1e5, $F=nrr, $ttl=1000, $D=costprobprodcorr0.01, $xi=5, $R=lru, $csize=1e3, $pricebits=0, $mytime=1800"
attr iterationvars2 "$net=geant_cost, $rep=1, $priceratiovalue=10, $weights=0.333_0.333_0.334, $lambda=100, $a=1, $ctlg=1e5, $F=nrr, $ttl=1000, $D=costprobprodcorr0.01, $xi=5, $R=lru, $csize=1e3, $pricebits=0, $mytime=1800, $repetition=0"
attr lambda 100
attr measurement "$net=geant_cost, $rep=1, $priceratiovalue=10, $weights=0.333_0.333_0.334, $lambda=100, $a=1, $ctlg=1e5, $F=nrr, $ttl=1000, $D=costprobprodcorr0.01, $xi=5, $R=lru, $csize=1e3, $pricebits=0, $mytime=1800"
attr mytime 1800
attr net geant_cost
attr network "networks.${net=geant_cost, abilene_cost}_network"
attr pricebits 0
attr priceratiovalue 10
attr processid 12184
attr rep 1
attr repetition 0
attr replication #0
attr resultdir results
attr runnumber 10
attr seedset 1
attr ttl 1000
attr weights 0.333_0.333_0.334
attr xi 5

scalar . 	a 	1
scalar . 	csize 	1e3
scalar . 	ctlg 	1e5
scalar . 	lambda 	100
scalar . 	mytime 	1800
scalar . 	pricebits 	0
scalar . 	priceratiovalue 	10
scalar . 	rep 	1
scalar . 	ttl 	1000
scalar . 	xi 	5
scalar geant_cost_network.content_distribution 	repo-0 	22
scalar geant_cost_network.content_distribution 	repo-1 	23
scalar geant_cost_network.content_distribution 	repo-2 	24
scalar geant_cost_network.content_distribution 	client-0 	20
scalar geant_cost_network.content_distribution 	client-1 	10
scalar geant_cost_network.content_distribution 	client-2 	12
scalar geant_cost_network.content_distribution 	client-3 	9
scalar geant_cost_network.content_distribution 	client-4 	5
scalar geant_cost_network.content_distribution 	repo-0_card 	33396
scalar geant_cost_network.content_distribution 	repo-1_card 	33039
scalar geant_cost_network.content_distribution 	repo-2_card 	33565
scalar geant_cost_network.statistics 	repo_popularity[0] 	0.28686251265602
scalar geant_cost_network.statistics 	repo_popularity[1] 	0.2886063426465
scalar geant_cost_network.statistics 	repo_popularity[2] 	0.42453114469748
scalar geant_cost_network.statistics 	stabilization_time 	36060
scalar geant_cost_network.node[7].face$o[4].channel 	price[7] 	0
scalar geant_cost_network.node[7].face$o[4].channel 	represented_price[7] 	0
scalar geant_cost_network.node[8].face$o[3].channel 	price[8] 	0
scalar geant_cost_network.node[8].face$o[3].channel 	represented_price[8] 	0
scalar geant_cost_network.node[21].face$o[5].channel 	price[21] 	0
scalar geant_cost_network.node[21].face$o[5].channel 	represented_price[21] 	0
scalar geant_cost_network.node[22].face$o[1].channel 	price[22] 	0
scalar geant_cost_network.node[22].face$o[1].channel 	represented_price[22] 	0
scalar geant_cost_network.node[23].face$o[1].channel 	price[23] 	1
scalar geant_cost_network.node[23].face$o[1].channel 	represented_price[23] 	1
scalar geant_cost_network.node[24].face$o[1].channel 	price[24] 	10
scalar geant_cost_network.node[24].face$o[1].channel 	represented_price[24] 	10
scalar geant_cost_network.statistics 	p_hit 	0.061751817727484
scalar geant_cost_network.statistics 	interests 	153191.28
scalar geant_cost_network.statistics 	data 	117177.64
scalar geant_cost_network.statistics 	hdistance 	4.0391085120327
scalar geant_cost_network.statistics 	avg_time 	0.007534363164
scalar geant_cost_network.statistics 	downloads 	892499
scalar geant_cost_network.statistics 	total_cost 	1591845
scalar geant_cost_network.statistics 	total_replicas 	100000
scalar geant_cost_network.statistics 	inner_hit 	0.27412019509266
scalar geant_cost_network.statistics 	interests_sent 	900331
scalar geant_cost_network.node[0].core_layer 	interests[0] 	0
scalar geant_cost_network.node[0].core_layer 	data[0] 	0
scalar geant_cost_network.node[0].core_layer 	repo_int[0] 	647847
scalar geant_cost_network.node[0].content_store 	p_hit[0] 	-nan
scalar geant_cost_network.node[0].content_store 	hits[0] 	0
scalar geant_cost_network.node[0].content_store 	misses[0] 	0
scalar geant_cost_network.node[0].content_store 	decision_yes[0] 	0
scalar geant_cost_network.node[0].content_store 	decision_no[0] 	0
scalar geant_cost_network.node[0].content_store 	decision_ratio[0] 	0
scalar geant_cost_network.node[0].content_store 	correction_factor[0] 	2.9939821258668e-07
scalar geant_cost_network.node[0].content_store 	xi[0] 	5
scalar geant_cost_network.node[1].core_layer 	interests[1] 	0
scalar geant_cost_network.node[1].core_layer 	data[1] 	0
scalar geant_cost_network.node[1].content_store 	p_hit[1] 	-nan
scalar geant_cost_network.node[1].content_store 	hits[1] 	0
scalar geant_cost_network.node[1].content_store 	misses[1] 	0
scalar geant_cost_network.node[1].content_store 	decision_yes[1] 	0
scalar geant_cost_network.node[1].content_store 	decision_no[1] 	0
scalar geant_cost_network.node[1].content_store 	decision_ratio[1] 	0
scalar geant_cost_network.node[1].content_store 	correction_factor[1] 	2.9939821258668e-07
scalar geant_cost_network.node[1].content_store 	xi[1] 	5
scalar geant_cost_network.node[2].core_layer 	interests[2] 	0
scalar geant_cost_network.node[2].core_layer 	data[2] 	0
scalar geant_cost_network.node[2].content_store 	p_hit[2] 	-nan
scalar geant_cost_network.node[2].content_store 	hits[2] 	0
scalar geant_cost_network.node[2].content_store 	misses[2] 	0
scalar geant_cost_network.node[2].content_store 	decision_yes[2] 	0
scalar geant_cost_network.node[2].content_store 	decision_no[2] 	0
scalar geant_cost_network.node[2].content_store 	decision_ratio[2] 	0
scalar geant_cost_network.node[2].content_store 	correction_factor[2] 	2.9939821258668e-07
scalar geant_cost_network.node[2].content_store 	xi[2] 	5
scalar geant_cost_network.node[3].core_layer 	interests[3] 	249966
scalar geant_cost_network.node[3].core_layer 	data[3] 	224415
scalar geant_cost_network.node[3].content_store 	p_hit[3] 	0.10217789619388
scalar geant_cost_network.node[3].content_store 	hits[3] 	25541
scalar geant_cost_network.node[3].content_store 	misses[3] 	224425
scalar geant_cost_network.node[3].content_store 	decision_yes[3] 	2341
scalar geant_cost_network.node[3].content_store 	decision_no[3] 	222074
scalar geant_cost_network.node[3].content_store 	decision_ratio[3] 	0.01043156651739
scalar geant_cost_network.node[3].content_store 	correction_factor[3] 	2.9939821258668e-07
scalar geant_cost_network.node[3].content_store 	xi[3] 	5
scalar geant_cost_network.node[4].core_layer 	interests[4] 	324214
scalar geant_cost_network.node[4].core_layer 	data[4] 	310207
scalar geant_cost_network.node[4].content_store 	p_hit[4] 	0.043002461337265
scalar geant_cost_network.node[4].content_store 	hits[4] 	13942
scalar geant_cost_network.node[4].content_store 	misses[4] 	310272
scalar geant_cost_network.node[4].content_store 	decision_yes[4] 	2297
scalar geant_cost_network.node[4].content_store 	decision_no[4] 	307910
scalar geant_cost_network.node[4].content_store 	decision_ratio[4] 	0.0074047329686306
scalar geant_cost_network.node[4].content_store 	correction_factor[4] 	2.9939821258668e-07
scalar geant_cost_network.node[4].content_store 	xi[4] 	5
scalar geant_cost_network.node[5].core_layer 	interests[5] 	187446
scalar geant_cost_network.node[5].core_layer 	data[5] 	175530
scalar geant_cost_network.node[5].content_store 	p_hit[5] 	0.051780246044194
scalar geant_cost_network.node[5].content_store 	hits[5] 	9706
scalar geant_cost_network.node[5].content_store 	misses[5] 	177740
scalar geant_cost_network.node[5].content_store 	decision_yes[5] 	781
scalar geant_cost_network.node[5].content_store 	decision_no[5] 	174749
scalar geant_cost_network.node[5].content_store 	decision_ratio[5] 	0.0044493818720447
scalar geant_cost_network.node[5].content_store 	correction_factor[5] 	2.9939821258668e-07
scalar geant_cost_network.node[5].content_store 	xi[5] 	5
scalar geant_cost_network.node[6].core_layer 	interests[6] 	102572
scalar geant_cost_network.node[6].core_layer 	data[6] 	102572
scalar geant_cost_network.node[6].content_store 	p_hit[6] 	0
scalar geant_cost_network.node[6].content_store 	hits[6] 	0
scalar geant_cost_network.node[6].content_store 	misses[6] 	102572
scalar geant_cost_network.node[6].content_store 	decision_yes[6] 	0
scalar geant_cost_network.node[6].content_store 	decision_no[6] 	102572
scalar geant_cost_network.node[6].content_store 	decision_ratio[6] 	0
scalar geant_cost_network.node[6].content_store 	correction_factor[6] 	2.9939821258668e-07
scalar geant_cost_network.node[6].content_store 	xi[6] 	5
scalar geant_cost_network.node[7].core_layer 	interests[7] 	360324
scalar geant_cost_network.node[7].core_layer 	data[7] 	360254
scalar geant_cost_network.node[7].content_store 	p_hit[7] 	1.1101120103018e-05
scalar geant_cost_network.node[7].content_store 	hits[7] 	4
scalar geant_cost_network.node[7].content_store 	misses[7] 	360320
scalar geant_cost_network.node[7].content_store 	decision_yes[7] 	0
scalar geant_cost_network.node[7].content_store 	decision_no[7] 	360254
scalar geant_cost_network.node[7].content_store 	decision_ratio[7] 	0
scalar geant_cost_network.node[7].content_store 	correction_factor[7] 	2.9939821258668e-07
scalar geant_cost_network.node[7].content_store 	xi[7] 	5
scalar geant_cost_network.node[8].core_layer 	interests[8] 	361490
scalar geant_cost_network.node[8].core_layer 	data[8] 	360701
scalar geant_cost_network.node[8].content_store 	p_hit[8] 	0.0021826329912307
scalar geant_cost_network.node[8].content_store 	hits[8] 	789
scalar geant_cost_network.node[8].content_store 	misses[8] 	360701
scalar geant_cost_network.node[8].content_store 	decision_yes[8] 	0
scalar geant_cost_network.node[8].content_store 	decision_no[8] 	360701
scalar geant_cost_network.node[8].content_store 	decision_ratio[8] 	0
scalar geant_cost_network.node[8].content_store 	correction_factor[8] 	2.9939821258668e-07
scalar geant_cost_network.node[8].content_store 	xi[8] 	5
scalar geant_cost_network.node[9].core_layer 	interests[9] 	414464
scalar geant_cost_network.node[9].core_layer 	data[9] 	401804
scalar geant_cost_network.node[9].content_store 	p_hit[9] 	0.019053524552193
scalar geant_cost_network.node[9].content_store 	hits[9] 	7897
scalar geant_cost_network.node[9].content_store 	misses[9] 	406567
scalar geant_cost_network.node[9].content_store 	decision_yes[9] 	1552
scalar geant_cost_network.node[9].content_store 	decision_no[9] 	400252
scalar geant_cost_network.node[9].content_store 	decision_ratio[9] 	0.0038625797652587
scalar geant_cost_network.node[9].content_store 	correction_factor[9] 	2.9939821258668e-07
scalar geant_cost_network.node[9].content_store 	xi[9] 	5
scalar geant_cost_network.node[10].core_layer 	interests[10] 	184229
scalar geant_cost_network.node[10].core_layer 	data[10] 	176546
scalar geant_cost_network.node[10].content_store 	p_hit[10] 	0.03094518235457
scalar geant_cost_network.node[10].content_store 	hits[10] 	5701
scalar geant_cost_network.node[10].content_store 	misses[10] 	178528
scalar geant_cost_network.node[10].content_store 	decision_yes[10] 	765
scalar geant_cost_network.node[10].content_store 	decision_no[10] 	175781
scalar geant_cost_network.node[10].content_store 	decision_ratio[10] 	0.0043331483012926
scalar geant_cost_network.node[10].content_store 	correction_factor[10] 	2.9939821258668e-07
scalar geant_cost_network.node[10].content_store 	xi[10] 	5
scalar geant_cost_network.node[11].core_layer 	interests[11] 	0
scalar geant_cost_network.node[11].core_layer 	data[11] 	0
scalar geant_cost_network.node[11].content_store 	p_hit[11] 	-nan
scalar geant_cost_network.node[11].content_store 	hits[11] 	0
scalar geant_cost_network.node[11].content_store 	misses[11] 	0
scalar geant_cost_network.node[11].content_store 	decision_yes[11] 	0
scalar geant_cost_network.node[11].content_store 	decision_no[11] 	0
scalar geant_cost_network.node[11].content_store 	decision_ratio[11] 	0
scalar geant_cost_network.node[11].content_store 	correction_factor[11] 	2.9939821258668e-07
scalar geant_cost_network.node[11].content_store 	xi[11] 	5
scalar geant_cost_network.node[12].core_layer 	interests[12] 	325199
scalar geant_cost_network.node[12].core_layer 	data[12] 	297901
scalar geant_cost_network.node[12].content_store 	p_hit[12] 	0.065249278134312
scalar geant_cost_network.node[12].content_store 	hits[12] 	21219
scalar geant_cost_network.node[12].content_store 	misses[12] 	303980
scalar geant_cost_network.node[12].content_store 	decision_yes[12] 	2333
scalar geant_cost_network.node[12].content_store 	decision_no[12] 	295568
scalar geant_cost_network.node[12].content_store 	decision_ratio[12] 	0.0078314607873085
scalar geant_cost_network.node[12].content_store 	correction_factor[12] 	2.9939821258668e-07
scalar geant_cost_network.node[12].content_store 	xi[12] 	5
scalar geant_cost_network.node[13].core_layer 	interests[13] 	10359
scalar geant_cost_network.node[13].core_layer 	data[13] 	10358
scalar geant_cost_network.node[13].content_store 	p_hit[13] 	0
scalar geant_cost_network.node[13].content_store 	hits[13] 	0
scalar geant_cost_network.node[13].content_store 	misses[13] 	10359
scalar geant_cost_network.node[13].content_store 	decision_yes[13] 	0
scalar geant_cost_network.node[13].content_store 	decision_no[13] 	10358
scalar geant_cost_network.node[13].content_store 	decision_ratio[13] 	0
scalar geant_cost_network.node[13].content_store 	correction_factor[13] 	2.9939821258668e-07
scalar geant_cost_network.node[13].content_store 	xi[13] 	5
scalar geant_cost_network.node[14].core_layer 	interests[14] 	74420
scalar geant_cost_network.node[14].core_layer 	data[14] 	56277
scalar geant_cost_network.node[14].content_store 	p_hit[14] 	0.24379199140016
scalar geant_cost_network.node[14].content_store 	hits[14] 	18143
scalar geant_cost_network.node[14].content_store 	misses[14] 	56277
scalar geant_cost_network.node[14].content_store 	decision_yes[14] 	775
scalar geant_cost_network.node[14].content_store 	decision_no[14] 	55502
scalar geant_cost_network.node[14].content_store 	decision_ratio[14] 	0.013771167617321
scalar geant_cost_network.node[14].content_store 	correction_factor[14] 	2.9939821258668e-07
scalar geant_cost_network.node[14].content_store 	xi[14] 	5
scalar geant_cost_network.node[15].core_layer 	interests[15] 	0
scalar geant_cost_network.node[15].core_layer 	data[15] 	0
scalar geant_cost_network.node[15].content_store 	p_hit[15] 	-nan
scalar geant_cost_network.node[15].content_store 	hits[15] 	0
scalar geant_cost_network.node[15].content_store 	misses[15] 	0
scalar geant_cost_network.node[15].content_store 	decision_yes[15] 	0
scalar geant_cost_network.node[15].content_store 	decision_no[15] 	0
scalar geant_cost_network.node[15].content_store 	decision_ratio[15] 	0
scalar geant_cost_network.node[15].content_store 	correction_factor[15] 	2.9939821258668e-07
scalar geant_cost_network.node[15].content_store 	xi[15] 	5
scalar geant_cost_network.node[16].core_layer 	interests[16] 	0
scalar geant_cost_network.node[16].core_layer 	data[16] 	0
scalar geant_cost_network.node[16].content_store 	p_hit[16] 	-nan
scalar geant_cost_network.node[16].content_store 	hits[16] 	0
scalar geant_cost_network.node[16].content_store 	misses[16] 	0
scalar geant_cost_network.node[16].content_store 	decision_yes[16] 	0
scalar geant_cost_network.node[16].content_store 	decision_no[16] 	0
scalar geant_cost_network.node[16].content_store 	decision_ratio[16] 	0
scalar geant_cost_network.node[16].content_store 	correction_factor[16] 	2.9939821258668e-07
scalar geant_cost_network.node[16].content_store 	xi[16] 	5
scalar geant_cost_network.node[17].core_layer 	interests[17] 	0
scalar geant_cost_network.node[17].core_layer 	data[17] 	0
scalar geant_cost_network.node[17].content_store 	p_hit[17] 	-nan
scalar geant_cost_network.node[17].content_store 	hits[17] 	0
scalar geant_cost_network.node[17].content_store 	misses[17] 	0
scalar geant_cost_network.node[17].content_store 	decision_yes[17] 	0
scalar geant_cost_network.node[17].content_store 	decision_no[17] 	0
scalar geant_cost_network.node[17].content_store 	decision_ratio[17] 	0
scalar geant_cost_network.node[17].content_store 	correction_factor[17] 	2.9939821258668e-07
scalar geant_cost_network.node[17].content_store 	xi[17] 	5
scalar geant_cost_network.node[18].core_layer 	interests[18] 	151782
scalar geant_cost_network.node[18].core_layer 	data[18] 	151487
scalar geant_cost_network.node[18].content_store 	p_hit[18] 	0.0002240054815459
scalar geant_cost_network.node[18].content_store 	hits[18] 	34
scalar geant_cost_network.node[18].content_store 	misses[18] 	151748
scalar geant_cost_network.node[18].content_store 	decision_yes[18] 	0
scalar geant_cost_network.node[18].content_store 	decision_no[18] 	151487
scalar geant_cost_network.node[18].content_store 	decision_ratio[18] 	0
scalar geant_cost_network.node[18].content_store 	correction_factor[18] 	2.9939821258668e-07
scalar geant_cost_network.node[18].content_store 	xi[18] 	5
scalar geant_cost_network.node[19].core_layer 	interests[19] 	0
scalar geant_cost_network.node[19].core_layer 	data[19] 	0
scalar geant_cost_network.node[19].content_store 	p_hit[19] 	-nan
scalar geant_cost_network.node[19].content_store 	hits[19] 	0
scalar geant_cost_network.node[19].content_store 	misses[19] 	0
scalar geant_cost_network.node[19].content_store 	decision_yes[19] 	0
scalar geant_cost_network.node[19].content_store 	decision_no[19] 	0
scalar geant_cost_network.node[19].content_store 	decision_ratio[19] 	0
scalar geant_cost_network.node[19].content_store 	correction_factor[19] 	2.9939821258668e-07
scalar geant_cost_network.node[19].content_store 	xi[19] 	5
scalar geant_cost_network.node[20].core_layer 	interests[20] 	214799
scalar geant_cost_network.node[20].core_layer 	data[20] 	167934
scalar geant_cost_network.node[20].content_store 	p_hit[20] 	0.21556897378479
scalar geant_cost_network.node[20].content_store 	hits[20] 	46304
scalar geant_cost_network.node[20].content_store 	misses[20] 	168495
scalar geant_cost_network.node[20].content_store 	decision_yes[20] 	881
scalar geant_cost_network.node[20].content_store 	decision_no[20] 	167053
scalar geant_cost_network.node[20].content_store 	decision_ratio[20] 	0.0052461085902795
scalar geant_cost_network.node[20].content_store 	correction_factor[20] 	2.9939821258668e-07
scalar geant_cost_network.node[20].content_store 	xi[20] 	5
scalar geant_cost_network.node[21].core_layer 	interests[21] 	220671
scalar geant_cost_network.node[21].core_layer 	data[21] 	133455
scalar geant_cost_network.node[21].content_store 	p_hit[21] 	0.39523090936281
scalar geant_cost_network.node[21].content_store 	hits[21] 	87216
scalar geant_cost_network.node[21].content_store 	misses[21] 	133455
scalar geant_cost_network.node[21].content_store 	decision_yes[21] 	4069
scalar geant_cost_network.node[21].content_store 	decision_no[21] 	129386
scalar geant_cost_network.node[21].content_store 	decision_ratio[21] 	0.030489678168671
scalar geant_cost_network.node[21].content_store 	correction_factor[21] 	2.9939821258668e-07
scalar geant_cost_network.node[21].content_store 	xi[21] 	5
scalar geant_cost_network.node[22].core_layer 	interests[22] 	257097
scalar geant_cost_network.node[22].core_layer 	repo_load[22] 	257097
scalar geant_cost_network.node[22].core_layer 	data[22] 	0
scalar geant_cost_network.node[22].content_store 	p_hit[22] 	0
scalar geant_cost_network.node[22].content_store 	hits[22] 	0
scalar geant_cost_network.node[22].content_store 	misses[22] 	257097
scalar geant_cost_network.node[22].content_store 	decision_yes[22] 	0
scalar geant_cost_network.node[22].content_store 	decision_no[22] 	257097
scalar geant_cost_network.node[22].content_store 	decision_ratio[22] 	0
scalar geant_cost_network.node[23].core_layer 	interests[23] 	257295
scalar geant_cost_network.node[23].core_layer 	repo_load[23] 	257295
scalar geant_cost_network.node[23].core_layer 	data[23] 	0
scalar geant_cost_network.node[23].content_store 	p_hit[23] 	0
scalar geant_cost_network.node[23].content_store 	hits[23] 	0
scalar geant_cost_network.node[23].content_store 	misses[23] 	257295
scalar geant_cost_network.node[23].content_store 	decision_yes[23] 	0
scalar geant_cost_network.node[23].content_store 	decision_no[23] 	257295
scalar geant_cost_network.node[23].content_store 	decision_ratio[23] 	0
scalar geant_cost_network.node[24].core_layer 	interests[24] 	133455
scalar geant_cost_network.node[24].core_layer 	repo_load[24] 	133455
scalar geant_cost_network.node[24].core_layer 	data[24] 	0
scalar geant_cost_network.node[24].content_store 	p_hit[24] 	0
scalar geant_cost_network.node[24].content_store 	hits[24] 	0
scalar geant_cost_network.node[24].content_store 	misses[24] 	133455
scalar geant_cost_network.node[24].content_store 	decision_yes[24] 	0
scalar geant_cost_network.node[24].content_store 	decision_no[24] 	133455
scalar geant_cost_network.node[24].content_store 	decision_ratio[24] 	0
scalar geant_cost_network.client[5] 	hdistance[5] 	3.7343611863481
scalar geant_cost_network.client[5] 	downloads[5] 	177587
scalar geant_cost_network.client[5] 	avg_time[5] 	0.010248258824
scalar geant_cost_network.client[5] 	interests_sent[5] 	179797
scalar geant_cost_network.client[9] 	hdistance[9] 	3.7740667205097
scalar geant_cost_network.client[9] 	downloads[9] 	178296
scalar geant_cost_network.client[9] 	avg_time[9] 	0.005973733387
scalar geant_cost_network.client[9] 	interests_sent[9] 	179943
scalar geant_cost_network.client[10] 	hdistance[10] 	4.7626054784215
scalar geant_cost_network.client[10] 	downloads[10] 	178117
scalar geant_cost_network.client[10] 	avg_time[10] 	0.007958367102
scalar geant_cost_network.client[10] 	interests_sent[10] 	180099
scalar geant_cost_network.client[12] 	hdistance[12] 	3.974939972623
scalar geant_cost_network.client[12] 	downloads[12] 	178252
scalar geant_cost_network.client[12] 	avg_time[12] 	0.006555603696
scalar geant_cost_network.client[12] 	interests_sent[12] 	179684
scalar geant_cost_network.client[20] 	hdistance[20] 	3.9495692022613
scalar geant_cost_network.client[20] 	downloads[20] 	180247
scalar geant_cost_network.client[20] 	avg_time[20] 	0.006935852813
scalar geant_cost_network.client[20] 	interests_sent[20] 	180808
