version 2
run General-1922-20140422-20:19:45-13031
attr D prob_cache
attr F nrr
attr R lru
attr a 0
attr configname General
attr csize 10
attr ctlg 10^3
attr datetime 20140422-20:19:45
attr experiment General
attr inifile omnetpp.ini
attr iterationvars "$net=simple_scenario, $rep=17, $priceratiovalue=1, $a=0, $ctlg=10^3, $F=nrr, $ttl=1000, $D=prob_cache, $R=lru, $csize=10"
attr iterationvars2 "$net=simple_scenario, $rep=17, $priceratiovalue=1, $a=0, $ctlg=10^3, $F=nrr, $ttl=1000, $D=prob_cache, $R=lru, $csize=10, $repetition=0"
attr measurement "$net=simple_scenario, $rep=17, $priceratiovalue=1, $a=0, $ctlg=10^3, $F=nrr, $ttl=1000, $D=prob_cache, $R=lru, $csize=10"
attr net simple_scenario
attr network networks.${net=simple_scenario}_network
attr priceratiovalue 1
attr processid 13031
attr rep 17
attr repetition 0
attr replication #0
attr resultdir results
attr runnumber 1922
attr seedset 17
attr ttl 1000

scalar . 	a 	0
scalar . 	csize 	10
scalar . 	priceratiovalue 	1
scalar . 	rep 	17
scalar . 	ttl 	1000
scalar simple_scenario_network.content_distribution 	repo-0 	3
scalar simple_scenario_network.content_distribution 	repo-1 	4
scalar simple_scenario_network.content_distribution 	client-0 	0
scalar simple_scenario_network.content_distribution 	repo-0_card 	481
scalar simple_scenario_network.content_distribution 	repo-1_card 	519
scalar simple_scenario_network.statistics 	p_hit 	0.0095439786460981
scalar simple_scenario_network.statistics 	interests 	106622.2
scalar simple_scenario_network.statistics 	data 	70621.2
scalar simple_scenario_network.statistics 	hdistance 	2.9333799984445
scalar simple_scenario_network.statistics 	avg_time 	0.001999775171
scalar simple_scenario_network.statistics 	downloads 	180006
scalar simple_scenario_network.statistics 	total_cost 	87458
scalar simple_scenario_network.node[0].core_layer 	interests[0] 	180005
scalar simple_scenario_network.node[0].core_layer 	data[0] 	178189
scalar simple_scenario_network.node[0].core_layer 	repo_int[0] 	174917
scalar simple_scenario_network.node[0].content_store 	p_hit[0] 	0.01008860864976
scalar simple_scenario_network.node[0].content_store 	hits[0] 	1816
scalar simple_scenario_network.node[0].content_store 	misses[0] 	178189
scalar simple_scenario_network.node[1].core_layer 	interests[1] 	85563
scalar simple_scenario_network.node[1].core_layer 	data[1] 	83880
scalar simple_scenario_network.node[1].content_store 	p_hit[1] 	0.019669717050594
scalar simple_scenario_network.node[1].content_store 	hits[1] 	1683
scalar simple_scenario_network.node[1].content_store 	misses[1] 	83880
scalar simple_scenario_network.node[2].core_layer 	interests[2] 	92626
scalar simple_scenario_network.node[2].core_layer 	data[2] 	91037
scalar simple_scenario_network.node[2].content_store 	p_hit[2] 	0.017155010472222
scalar simple_scenario_network.node[2].content_store 	hits[2] 	1589
scalar simple_scenario_network.node[2].content_store 	misses[2] 	91037
scalar simple_scenario_network.node[3].core_layer 	interests[3] 	83880
scalar simple_scenario_network.node[3].core_layer 	repo_load[3] 	83880
scalar simple_scenario_network.node[3].core_layer 	data[3] 	0
scalar simple_scenario_network.node[3].content_store 	p_hit[3] 	0
scalar simple_scenario_network.node[3].content_store 	hits[3] 	0
scalar simple_scenario_network.node[3].content_store 	misses[3] 	83880
scalar simple_scenario_network.node[4].core_layer 	interests[4] 	91037
scalar simple_scenario_network.node[4].core_layer 	repo_load[4] 	91037
scalar simple_scenario_network.node[4].core_layer 	data[4] 	0
scalar simple_scenario_network.node[4].content_store 	p_hit[4] 	0
scalar simple_scenario_network.node[4].content_store 	hits[4] 	0
scalar simple_scenario_network.node[4].content_store 	misses[4] 	91037
scalar simple_scenario_network.client[0] 	hdistance[0] 	2.9333799984445
scalar simple_scenario_network.client[0] 	downloads[0] 	180006
scalar simple_scenario_network.client[0] 	avg_time[0] 	0.001999775171
