version 2
run General-4803-20140425-07:03:52-17207
attr D lce
attr F nrr
attr R lru
attr a 0.8
attr configname General
attr csize 9
attr ctlg 10^3
attr datetime 20140425-07:03:52
attr experiment General
attr inifile omnetpp.ini
attr iterationvars "$net=one_cache_scenario, $rep=12, $priceratiovalue=5, $a=0.8, $ctlg=10^3, $F=nrr, $ttl=1000, $D=lce, $R=lru, $csize=9"
attr iterationvars2 "$net=one_cache_scenario, $rep=12, $priceratiovalue=5, $a=0.8, $ctlg=10^3, $F=nrr, $ttl=1000, $D=lce, $R=lru, $csize=9, $repetition=0"
attr measurement "$net=one_cache_scenario, $rep=12, $priceratiovalue=5, $a=0.8, $ctlg=10^3, $F=nrr, $ttl=1000, $D=lce, $R=lru, $csize=9"
attr net one_cache_scenario
attr network networks.${net=one_cache_scenario}_network
attr priceratiovalue 5
attr processid 17207
attr rep 12
attr repetition 0
attr replication #0
attr resultdir results
attr runnumber 4803
attr seedset 12
attr ttl 1000

scalar . 	a 	0.8
scalar . 	csize 	9
scalar . 	priceratiovalue 	5
scalar . 	rep 	12
scalar . 	ttl 	1000
scalar one_cache_scenario_network.content_distribution 	repo-0 	3
scalar one_cache_scenario_network.content_distribution 	repo-1 	4
scalar one_cache_scenario_network.content_distribution 	client-0 	0
scalar one_cache_scenario_network.content_distribution 	repo-0_card 	506
scalar one_cache_scenario_network.content_distribution 	repo-1_card 	494
scalar one_cache_scenario_network.statistics 	p_hit 	0.026471839755777
scalar one_cache_scenario_network.statistics 	interests 	102463.6
scalar one_cache_scenario_network.statistics 	data 	66500.8
scalar one_cache_scenario_network.statistics 	hdistance 	1.8491552381906
scalar one_cache_scenario_network.statistics 	avg_time 	0
scalar one_cache_scenario_network.statistics 	downloads 	179814
scalar one_cache_scenario_network.statistics 	total_cost 	88067
scalar one_cache_scenario_network.statistics 	interests_sent 	179814
scalar one_cache_scenario_network.node[0].core_layer 	interests[0] 	179814
scalar one_cache_scenario_network.node[0].core_layer 	data[0] 	166252
scalar one_cache_scenario_network.node[0].core_layer 	repo_int[0] 	166252
scalar one_cache_scenario_network.node[0].content_store 	p_hit[0] 	0.075422380904713
scalar one_cache_scenario_network.node[0].content_store 	hits[0] 	13562
scalar one_cache_scenario_network.node[0].content_store 	misses[0] 	166252
scalar one_cache_scenario_network.node[0].content_store 	decision_yes[0] 	166252
scalar one_cache_scenario_network.node[0].content_store 	decision_no[0] 	0
scalar one_cache_scenario_network.node[1].core_layer 	interests[1] 	75713
scalar one_cache_scenario_network.node[1].core_layer 	data[1] 	75713
scalar one_cache_scenario_network.node[1].content_store 	p_hit[1] 	0
scalar one_cache_scenario_network.node[1].content_store 	hits[1] 	0
scalar one_cache_scenario_network.node[1].content_store 	misses[1] 	75713
scalar one_cache_scenario_network.node[1].content_store 	decision_yes[1] 	0
scalar one_cache_scenario_network.node[1].content_store 	decision_no[1] 	75713
scalar one_cache_scenario_network.node[2].core_layer 	interests[2] 	90539
scalar one_cache_scenario_network.node[2].core_layer 	data[2] 	90539
scalar one_cache_scenario_network.node[2].content_store 	p_hit[2] 	0
scalar one_cache_scenario_network.node[2].content_store 	hits[2] 	0
scalar one_cache_scenario_network.node[2].content_store 	misses[2] 	90539
scalar one_cache_scenario_network.node[2].content_store 	decision_yes[2] 	0
scalar one_cache_scenario_network.node[2].content_store 	decision_no[2] 	90539
scalar one_cache_scenario_network.node[3].core_layer 	interests[3] 	75713
scalar one_cache_scenario_network.node[3].core_layer 	repo_load[3] 	75713
scalar one_cache_scenario_network.node[3].core_layer 	data[3] 	0
scalar one_cache_scenario_network.node[3].content_store 	p_hit[3] 	0
scalar one_cache_scenario_network.node[3].content_store 	hits[3] 	0
scalar one_cache_scenario_network.node[3].content_store 	misses[3] 	75713
scalar one_cache_scenario_network.node[3].content_store 	decision_yes[3] 	0
scalar one_cache_scenario_network.node[3].content_store 	decision_no[3] 	75713
scalar one_cache_scenario_network.node[4].core_layer 	interests[4] 	90539
scalar one_cache_scenario_network.node[4].core_layer 	repo_load[4] 	90539
scalar one_cache_scenario_network.node[4].core_layer 	data[4] 	0
scalar one_cache_scenario_network.node[4].content_store 	p_hit[4] 	0
scalar one_cache_scenario_network.node[4].content_store 	hits[4] 	0
scalar one_cache_scenario_network.node[4].content_store 	misses[4] 	90539
scalar one_cache_scenario_network.node[4].content_store 	decision_yes[4] 	0
scalar one_cache_scenario_network.node[4].content_store 	decision_no[4] 	90539
scalar one_cache_scenario_network.client[0] 	hdistance[0] 	1.8491552381906
scalar one_cache_scenario_network.client[0] 	downloads[0] 	179814
scalar one_cache_scenario_network.client[0] 	avg_time[0] 	0
scalar one_cache_scenario_network.client[0] 	interests_sent[0] 	179814
