version 2
run General-0-20140725-17:49:49-29940
attr D costprobprodcorr0.01
attr F nrr
attr R lru
attr a 1
attr configname General
attr csize 5
attr ctlg 10
attr datetime 20140725-17:49:49
attr experiment General
attr inifile omnetpp.ini
attr iterationvars "$net=abilene_cost, $rep=14, $priceratiovalue=100, $weights=0.333_0.333_0.334, $lambda=100, $a=1, $ctlg=10, $F=nrr, $ttl=10, $D=costprobprodcorr0.01, $xi=1, $R=lru, $csize=5, $pricebits=0, $window=60, $variance=0.05, $mytime=1800"
attr iterationvars2 "$net=abilene_cost, $rep=14, $priceratiovalue=100, $weights=0.333_0.333_0.334, $lambda=100, $a=1, $ctlg=10, $F=nrr, $ttl=10, $D=costprobprodcorr0.01, $xi=1, $R=lru, $csize=5, $pricebits=0, $window=60, $variance=0.05, $mytime=1800, $repetition=0"
attr lambda 100
attr measurement "$net=abilene_cost, $rep=14, $priceratiovalue=100, $weights=0.333_0.333_0.334, $lambda=100, $a=1, $ctlg=10, $F=nrr, $ttl=10, $D=costprobprodcorr0.01, $xi=1, $R=lru, $csize=5, $pricebits=0, $window=60, $variance=0.05, $mytime=1800"
attr mytime 1800
attr net abilene_cost
attr network networks.${net=abilene_cost}_network
attr pricebits 0
attr priceratiovalue 100
attr processid 29940
attr rep 14
attr repetition 0
attr replication #0
attr resultdir results
attr runnumber 0
attr seedset 14
attr ttl 10
attr variance 0.05
attr weights 0.333_0.333_0.334
attr window 60
attr xi 1

scalar . 	a 	1
scalar . 	csize 	5
scalar . 	ctlg 	10
scalar . 	lambda 	100
scalar . 	mytime 	1800
scalar . 	pricebits 	0
scalar . 	priceratiovalue 	100
scalar . 	rep 	14
scalar . 	ttl 	10
scalar . 	variance 	0.05
scalar . 	window 	60
scalar . 	xi 	1
scalar abilene_cost_network.content_distribution 	repo-0 	10
scalar abilene_cost_network.content_distribution 	repo-1 	7
scalar abilene_cost_network.content_distribution 	repo-2 	1
scalar abilene_cost_network.content_distribution 	client-0 	5
scalar abilene_cost_network.content_distribution 	client-1 	0
scalar abilene_cost_network.content_distribution 	client-2 	9
scalar abilene_cost_network.content_distribution 	repo-0_card 	6
scalar abilene_cost_network.content_distribution 	repo-1_card 	2
scalar abilene_cost_network.content_distribution 	repo-2_card 	2
scalar abilene_cost_network.statistics 	popularity_indication[0] 	1.2178571428571
scalar abilene_cost_network.statistics 	repo_popularity[0] 	0.41579731743666
scalar abilene_cost_network.statistics 	popularity_indication[1] 	1.5
scalar abilene_cost_network.statistics 	repo_popularity[1] 	0.51212572822111
scalar abilene_cost_network.statistics 	popularity_indication[2] 	0.21111111111111
scalar abilene_cost_network.statistics 	repo_popularity[2] 	0.07207695434223
scalar abilene_cost_network.statistics 	stabilization_time 	30057.7
scalar abilene_cost_network.statistics 	p_hit 	0.13462269853616
scalar abilene_cost_network.statistics 	interests 	121666.63636364
scalar abilene_cost_network.statistics 	data 	72532.545454545
scalar abilene_cost_network.statistics 	hdistance 	2.4220981286416
scalar abilene_cost_network.statistics 	avg_time 	0.011873612508
scalar abilene_cost_network.statistics 	downloads 	436509
scalar abilene_cost_network.statistics 	total_cost 	0
scalar abilene_cost_network.statistics 	total_cost_other 	5846310
scalar abilene_cost_network.statistics 	total_replicas 	10
scalar abilene_cost_network.statistics 	inner_hit 	0.41274979439141
scalar abilene_cost_network.statistics 	interests_sent 	540473
scalar abilene_cost_network.node[0].core_layer 	interests[0] 	179739
scalar abilene_cost_network.node[0].core_layer 	data[0] 	123332
scalar abilene_cost_network.node[0].core_layer 	repo_int[0] 	256340
scalar abilene_cost_network.node[0].content_store 	p_hit[0] 	0.074569236504042
scalar abilene_cost_network.node[0].content_store 	hits[0] 	13403
scalar abilene_cost_network.node[0].content_store 	misses[0] 	166336
scalar abilene_cost_network.node[0].content_store 	decision_yes[0] 	1068
scalar abilene_cost_network.node[0].content_store 	decision_no[0] 	122264
scalar abilene_cost_network.node[0].content_store 	decision_ratio[0] 	0.0086595530762495
scalar abilene_cost_network.node[0].content_store 	correction_factor[0] 	0.00029644561705155
scalar abilene_cost_network.node[0].content_store 	xi[0] 	1
scalar abilene_cost_network.node[1].core_layer 	interests[1] 	91652
scalar abilene_cost_network.node[1].core_layer 	repo_load[1] 	11810
scalar abilene_cost_network.node[1].core_layer 	data[1] 	61734
scalar abilene_cost_network.node[1].content_store 	p_hit[1] 	0.19757342993061
scalar abilene_cost_network.node[1].content_store 	hits[1] 	18108
scalar abilene_cost_network.node[1].content_store 	misses[1] 	73544
scalar abilene_cost_network.node[1].content_store 	decision_yes[1] 	3
scalar abilene_cost_network.node[1].content_store 	decision_no[1] 	73541
scalar abilene_cost_network.node[1].content_store 	decision_ratio[1] 	4.0791906885674e-05
scalar abilene_cost_network.node[1].content_store 	correction_factor[1] 	0.00029644561705155
scalar abilene_cost_network.node[1].content_store 	xi[1] 	1
scalar abilene_cost_network.node[2].core_layer 	interests[2] 	89587
scalar abilene_cost_network.node[2].core_layer 	data[2] 	60548
scalar abilene_cost_network.node[2].content_store 	p_hit[2] 	0.32414301182091
scalar abilene_cost_network.node[2].content_store 	hits[2] 	29039
scalar abilene_cost_network.node[2].content_store 	misses[2] 	60548
scalar abilene_cost_network.node[2].content_store 	decision_yes[2] 	1
scalar abilene_cost_network.node[2].content_store 	decision_no[2] 	60547
scalar abilene_cost_network.node[2].content_store 	decision_ratio[2] 	1.6515822157627e-05
scalar abilene_cost_network.node[2].content_store 	correction_factor[2] 	0.00029644561705155
scalar abilene_cost_network.node[2].content_store 	xi[2] 	1
scalar abilene_cost_network.node[3].core_layer 	interests[3] 	81162
scalar abilene_cost_network.node[3].core_layer 	data[3] 	71315
scalar abilene_cost_network.node[3].content_store 	p_hit[3] 	0.1213252507331
scalar abilene_cost_network.node[3].content_store 	hits[3] 	9847
scalar abilene_cost_network.node[3].content_store 	misses[3] 	71315
scalar abilene_cost_network.node[3].content_store 	decision_yes[3] 	0
scalar abilene_cost_network.node[3].content_store 	decision_no[3] 	71315
scalar abilene_cost_network.node[3].content_store 	decision_ratio[3] 	0
scalar abilene_cost_network.node[3].content_store 	correction_factor[3] 	0.00029644561705155
scalar abilene_cost_network.node[3].content_store 	xi[3] 	1
scalar abilene_cost_network.node[4].core_layer 	interests[4] 	35946
scalar abilene_cost_network.node[4].core_layer 	data[4] 	27640
scalar abilene_cost_network.node[4].content_store 	p_hit[4] 	0.23106882546041
scalar abilene_cost_network.node[4].content_store 	hits[4] 	8306
scalar abilene_cost_network.node[4].content_store 	misses[4] 	27640
scalar abilene_cost_network.node[4].content_store 	decision_yes[4] 	3
scalar abilene_cost_network.node[4].content_store 	decision_no[4] 	27637
scalar abilene_cost_network.node[4].content_store 	decision_ratio[4] 	0.00010853835021708
scalar abilene_cost_network.node[4].content_store 	correction_factor[4] 	0.00029644561705155
scalar abilene_cost_network.node[4].content_store 	xi[4] 	1
scalar abilene_cost_network.node[5].core_layer 	interests[5] 	180035
scalar abilene_cost_network.node[5].core_layer 	data[5] 	138644
scalar abilene_cost_network.node[5].content_store 	p_hit[5] 	0.11317243869248
scalar abilene_cost_network.node[5].content_store 	hits[5] 	20375
scalar abilene_cost_network.node[5].content_store 	misses[5] 	159660
scalar abilene_cost_network.node[5].content_store 	decision_yes[5] 	0
scalar abilene_cost_network.node[5].content_store 	decision_no[5] 	138644
scalar abilene_cost_network.node[5].content_store 	decision_ratio[5] 	0
scalar abilene_cost_network.node[5].content_store 	correction_factor[5] 	0.00029644561705155
scalar abilene_cost_network.node[5].content_store 	xi[5] 	1
scalar abilene_cost_network.node[6].core_layer 	interests[6] 	102699
scalar abilene_cost_network.node[6].core_layer 	data[6] 	94114
scalar abilene_cost_network.node[6].content_store 	p_hit[6] 	0.083584066057118
scalar abilene_cost_network.node[6].content_store 	hits[6] 	8584
scalar abilene_cost_network.node[6].content_store 	misses[6] 	94115
scalar abilene_cost_network.node[6].content_store 	decision_yes[6] 	0
scalar abilene_cost_network.node[6].content_store 	decision_no[6] 	94114
scalar abilene_cost_network.node[6].content_store 	decision_ratio[6] 	0
scalar abilene_cost_network.node[6].content_store 	correction_factor[6] 	0.00029644561705155
scalar abilene_cost_network.node[6].content_store 	xi[6] 	1
scalar abilene_cost_network.node[7].core_layer 	interests[7] 	210520
scalar abilene_cost_network.node[7].core_layer 	repo_load[7] 	186185
scalar abilene_cost_network.node[7].core_layer 	data[7] 	11123
scalar abilene_cost_network.node[7].content_store 	p_hit[7] 	0.062758882766483
scalar abilene_cost_network.node[7].content_store 	hits[7] 	13212
scalar abilene_cost_network.node[7].content_store 	misses[7] 	197308
scalar abilene_cost_network.node[7].content_store 	decision_yes[7] 	0
scalar abilene_cost_network.node[7].content_store 	decision_no[7] 	197308
scalar abilene_cost_network.node[7].content_store 	decision_ratio[7] 	0
scalar abilene_cost_network.node[7].content_store 	correction_factor[7] 	0.00029644561705155
scalar abilene_cost_network.node[7].content_store 	xi[7] 	1
scalar abilene_cost_network.node[8].core_layer 	interests[8] 	94912
scalar abilene_cost_network.node[8].core_layer 	data[8] 	72962
scalar abilene_cost_network.node[8].content_store 	p_hit[8] 	0.23126685772084
scalar abilene_cost_network.node[8].content_store 	hits[8] 	21950
scalar abilene_cost_network.node[8].content_store 	misses[8] 	72962
scalar abilene_cost_network.node[8].content_store 	decision_yes[8] 	0
scalar abilene_cost_network.node[8].content_store 	decision_no[8] 	72962
scalar abilene_cost_network.node[8].content_store 	decision_ratio[8] 	0
scalar abilene_cost_network.node[8].content_store 	correction_factor[8] 	0.00029644561705155
scalar abilene_cost_network.node[8].content_store 	xi[8] 	1
scalar abilene_cost_network.node[9].core_layer 	interests[9] 	180708
scalar abilene_cost_network.node[9].core_layer 	data[9] 	126235
scalar abilene_cost_network.node[9].content_store 	p_hit[9] 	0.08040042499502
scalar abilene_cost_network.node[9].content_store 	hits[9] 	14529
scalar abilene_cost_network.node[9].content_store 	misses[9] 	166179
scalar abilene_cost_network.node[9].content_store 	decision_yes[9] 	642
scalar abilene_cost_network.node[9].content_store 	decision_no[9] 	125593
scalar abilene_cost_network.node[9].content_store 	decision_ratio[9] 	0.0050857527627045
scalar abilene_cost_network.node[9].content_store 	correction_factor[9] 	0.00029644561705155
scalar abilene_cost_network.node[9].content_store 	xi[9] 	1
scalar abilene_cost_network.node[10].core_layer 	interests[10] 	91373
scalar abilene_cost_network.node[10].core_layer 	repo_load[10] 	58345
scalar abilene_cost_network.node[10].core_layer 	data[10] 	10211
scalar abilene_cost_network.node[10].content_store 	p_hit[10] 	0.2497127160102
scalar abilene_cost_network.node[10].content_store 	hits[10] 	22817
scalar abilene_cost_network.node[10].content_store 	misses[10] 	68556
scalar abilene_cost_network.node[10].content_store 	decision_yes[10] 	1703
scalar abilene_cost_network.node[10].content_store 	decision_no[10] 	66853
scalar abilene_cost_network.node[10].content_store 	decision_ratio[10] 	0.024841005892993
scalar abilene_cost_network.node[10].content_store 	correction_factor[10] 	0.00029644561705155
scalar abilene_cost_network.node[10].content_store 	xi[10] 	1
scalar abilene_cost_network.client[0] 	hdistance[0] 	2.8456925113547
scalar abilene_cost_network.client[0] 	downloads[0] 	136727
scalar abilene_cost_network.client[0] 	avg_time[0] 	0.014359723693
scalar abilene_cost_network.client[0] 	interests_sent[0] 	179731
scalar abilene_cost_network.client[5] 	hdistance[5] 	2.3476565693408
scalar abilene_cost_network.client[5] 	downloads[5] 	159019
scalar abilene_cost_network.client[5] 	avg_time[5] 	0.007778783631
scalar abilene_cost_network.client[5] 	interests_sent[5] 	180035
scalar abilene_cost_network.client[9] 	hdistance[9] 	2.0729453052294
scalar abilene_cost_network.client[9] 	downloads[9] 	140763
scalar abilene_cost_network.client[9] 	avg_time[9] 	0.0134823302
scalar abilene_cost_network.client[9] 	interests_sent[9] 	180707
