version 2
run General-1703-20140502-04:24:28-10632
attr D fix0.005
attr F nrr
attr R lru
attr a 0.8
attr configname General
attr csize 1e3
attr ctlg 1e5
attr datetime 20140502-04:24:28
attr experiment General
attr inifile omnetpp.ini
attr iterationvars "$net=three_caches_scenario_3_links, $rep=3, $priceratiovalue=10, $weights=0_0.5_0.5, $a=0.8, $ctlg=1e5, $F=nrr, $ttl=1000, $D=fix0.005, $xi=1, $R=lru, $csize=1e3"
attr iterationvars2 "$net=three_caches_scenario_3_links, $rep=3, $priceratiovalue=10, $weights=0_0.5_0.5, $a=0.8, $ctlg=1e5, $F=nrr, $ttl=1000, $D=fix0.005, $xi=1, $R=lru, $csize=1e3, $repetition=0"
attr measurement "$net=three_caches_scenario_3_links, $rep=3, $priceratiovalue=10, $weights=0_0.5_0.5, $a=0.8, $ctlg=1e5, $F=nrr, $ttl=1000, $D=fix0.005, $xi=1, $R=lru, $csize=1e3"
attr net three_caches_scenario_3_links
attr network networks.${net=three_caches_scenario_3_links}_network
attr priceratiovalue 10
attr processid 10632
attr rep 3
attr repetition 0
attr replication #0
attr resultdir results
attr runnumber 1703
attr seedset 3
attr ttl 1000
attr weights 0_0.5_0.5
attr xi 1

scalar . 	a 	0.8
scalar . 	csize 	1e3
scalar . 	ctlg 	1e5
scalar . 	priceratiovalue 	10
scalar . 	rep 	3
scalar . 	ttl 	1000
scalar . 	xi 	1
scalar three_caches_scenario_3_links_network.content_distribution 	repo-0 	4
scalar three_caches_scenario_3_links_network.content_distribution 	repo-1 	5
scalar three_caches_scenario_3_links_network.content_distribution 	repo-2 	6
scalar three_caches_scenario_3_links_network.content_distribution 	client-0 	0
scalar three_caches_scenario_3_links_network.content_distribution 	repo-0_card 	0
scalar three_caches_scenario_3_links_network.content_distribution 	repo-1_card 	49794
scalar three_caches_scenario_3_links_network.content_distribution 	repo-2_card 	50206
scalar three_caches_scenario_3_links_network.statistics 	p_hit 	0.096714207909943
scalar three_caches_scenario_3_links_network.statistics 	interests 	65837.571428571
scalar three_caches_scenario_3_links_network.statistics 	data 	40149.714285714
scalar three_caches_scenario_3_links_network.statistics 	hdistance 	2.3151071935044
scalar three_caches_scenario_3_links_network.statistics 	avg_time 	0
scalar three_caches_scenario_3_links_network.statistics 	downloads 	179815
scalar three_caches_scenario_3_links_network.statistics 	total_cost 	742941
scalar three_caches_scenario_3_links_network.statistics 	total_replicas 	100000
scalar three_caches_scenario_3_links_network.statistics 	interests_sent 	179815
scalar three_caches_scenario_3_links_network.node[0].core_layer 	interests[0] 	179815
scalar three_caches_scenario_3_links_network.node[0].core_layer 	data[0] 	145805
scalar three_caches_scenario_3_links_network.node[0].core_layer 	repo_int[0] 	135243
scalar three_caches_scenario_3_links_network.node[0].content_store 	p_hit[0] 	0.18913883713817
scalar three_caches_scenario_3_links_network.node[0].content_store 	hits[0] 	34010
scalar three_caches_scenario_3_links_network.node[0].content_store 	misses[0] 	145805
scalar three_caches_scenario_3_links_network.node[0].content_store 	decision_yes[0] 	745
scalar three_caches_scenario_3_links_network.node[0].content_store 	decision_no[0] 	145060
scalar three_caches_scenario_3_links_network.node[1].core_layer 	interests[1] 	0
scalar three_caches_scenario_3_links_network.node[1].core_layer 	data[1] 	0
scalar three_caches_scenario_3_links_network.node[1].content_store 	p_hit[1] 	-nan
scalar three_caches_scenario_3_links_network.node[1].content_store 	hits[1] 	0
scalar three_caches_scenario_3_links_network.node[1].content_store 	misses[1] 	0
scalar three_caches_scenario_3_links_network.node[1].content_store 	decision_yes[1] 	0
scalar three_caches_scenario_3_links_network.node[1].content_store 	decision_no[1] 	0
scalar three_caches_scenario_3_links_network.node[2].core_layer 	interests[2] 	73045
scalar three_caches_scenario_3_links_network.node[2].core_layer 	data[2] 	67721
scalar three_caches_scenario_3_links_network.node[2].content_store 	p_hit[2] 	0.072886576767746
scalar three_caches_scenario_3_links_network.node[2].content_store 	hits[2] 	5324
scalar three_caches_scenario_3_links_network.node[2].content_store 	misses[2] 	67721
scalar three_caches_scenario_3_links_network.node[2].content_store 	decision_yes[2] 	348
scalar three_caches_scenario_3_links_network.node[2].content_store 	decision_no[2] 	67373
scalar three_caches_scenario_3_links_network.node[3].core_layer 	interests[3] 	72760
scalar three_caches_scenario_3_links_network.node[3].core_layer 	data[3] 	67522
scalar three_caches_scenario_3_links_network.node[3].content_store 	p_hit[3] 	0.071990104452996
scalar three_caches_scenario_3_links_network.node[3].content_store 	hits[3] 	5238
scalar three_caches_scenario_3_links_network.node[3].content_store 	misses[3] 	67522
scalar three_caches_scenario_3_links_network.node[3].content_store 	decision_yes[3] 	319
scalar three_caches_scenario_3_links_network.node[3].content_store 	decision_no[3] 	67203
scalar three_caches_scenario_3_links_network.node[4].core_layer 	interests[4] 	0
scalar three_caches_scenario_3_links_network.node[4].core_layer 	data[4] 	0
scalar three_caches_scenario_3_links_network.node[4].content_store 	p_hit[4] 	-nan
scalar three_caches_scenario_3_links_network.node[4].content_store 	hits[4] 	0
scalar three_caches_scenario_3_links_network.node[4].content_store 	misses[4] 	0
scalar three_caches_scenario_3_links_network.node[4].content_store 	decision_yes[4] 	0
scalar three_caches_scenario_3_links_network.node[4].content_store 	decision_no[4] 	0
scalar three_caches_scenario_3_links_network.node[5].core_layer 	interests[5] 	67721
scalar three_caches_scenario_3_links_network.node[5].core_layer 	repo_load[5] 	67721
scalar three_caches_scenario_3_links_network.node[5].core_layer 	data[5] 	0
scalar three_caches_scenario_3_links_network.node[5].content_store 	p_hit[5] 	0
scalar three_caches_scenario_3_links_network.node[5].content_store 	hits[5] 	0
scalar three_caches_scenario_3_links_network.node[5].content_store 	misses[5] 	67721
scalar three_caches_scenario_3_links_network.node[5].content_store 	decision_yes[5] 	0
scalar three_caches_scenario_3_links_network.node[5].content_store 	decision_no[5] 	67721
scalar three_caches_scenario_3_links_network.node[6].core_layer 	interests[6] 	67522
scalar three_caches_scenario_3_links_network.node[6].core_layer 	repo_load[6] 	67522
scalar three_caches_scenario_3_links_network.node[6].core_layer 	data[6] 	0
scalar three_caches_scenario_3_links_network.node[6].content_store 	p_hit[6] 	0
scalar three_caches_scenario_3_links_network.node[6].content_store 	hits[6] 	0
scalar three_caches_scenario_3_links_network.node[6].content_store 	misses[6] 	67522
scalar three_caches_scenario_3_links_network.node[6].content_store 	decision_yes[6] 	0
scalar three_caches_scenario_3_links_network.node[6].content_store 	decision_no[6] 	67522
scalar three_caches_scenario_3_links_network.client[0] 	hdistance[0] 	2.3151071935044
scalar three_caches_scenario_3_links_network.client[0] 	downloads[0] 	179815
scalar three_caches_scenario_3_links_network.client[0] 	avg_time[0] 	0
scalar three_caches_scenario_3_links_network.client[0] 	interests_sent[0] 	179815
