version 2
run General-0-20140501-19:13:12-4458
attr D costprob0.01
attr F nrr
attr R lru
attr a 0.1
attr configname General
attr csize 10
attr ctlg 1e3
attr datetime 20140501-19:13:12
attr experiment General
attr inifile omnetpp.ini
attr iterationvars "$net=one_cache_scenario_3_links, $rep=2, $priceratiovalue=1, $a=0.1, $ctlg=1e3, $F=nrr, $ttl=1000, $D=costprob0.01, $xi=1, $R=lru, $csize=10"
attr iterationvars2 "$net=one_cache_scenario_3_links, $rep=2, $priceratiovalue=1, $a=0.1, $ctlg=1e3, $F=nrr, $ttl=1000, $D=costprob0.01, $xi=1, $R=lru, $csize=10, $repetition=0"
attr measurement "$net=one_cache_scenario_3_links, $rep=2, $priceratiovalue=1, $a=0.1, $ctlg=1e3, $F=nrr, $ttl=1000, $D=costprob0.01, $xi=1, $R=lru, $csize=10"
attr net one_cache_scenario_3_links
attr network networks.${net=one_cache_scenario_3_links}_network
attr priceratiovalue 1
attr processid 4458
attr rep 2
attr repetition 0
attr replication #0
attr resultdir results
attr runnumber 0
attr seedset 2
attr ttl 1000
attr xi 1

scalar . 	a 	0.1
scalar . 	csize 	10
scalar . 	ctlg 	1e3
scalar . 	priceratiovalue 	1
scalar . 	rep 	2
scalar . 	ttl 	1000
scalar . 	xi 	1
scalar one_cache_scenario_3_links_network.content_distribution 	repo-0 	4
scalar one_cache_scenario_3_links_network.content_distribution 	repo-1 	5
scalar one_cache_scenario_3_links_network.content_distribution 	repo-2 	6
scalar one_cache_scenario_3_links_network.content_distribution 	client-0 	0
scalar one_cache_scenario_3_links_network.content_distribution 	repo-0_card 	326
scalar one_cache_scenario_3_links_network.content_distribution 	repo-1_card 	331
scalar one_cache_scenario_3_links_network.content_distribution 	repo-2_card 	343
scalar one_cache_scenario_3_links_network.statistics 	p_hit 	0.0033645578743164
scalar one_cache_scenario_3_links_network.statistics 	interests 	76511.857142857
scalar one_cache_scenario_3_links_network.statistics 	data 	50836.285714286
scalar one_cache_scenario_3_links_network.statistics 	hdistance 	1.9799475877571
scalar one_cache_scenario_3_links_network.statistics 	avg_time 	0
scalar one_cache_scenario_3_links_network.statistics 	downloads 	179729
scalar one_cache_scenario_3_links_network.statistics 	total_cost 	119223
scalar one_cache_scenario_3_links_network.statistics 	total_replicas 	1000
scalar one_cache_scenario_3_links_network.statistics 	interests_sent 	179729
scalar one_cache_scenario_3_links_network.node[0].core_layer 	interests[0] 	179729
scalar one_cache_scenario_3_links_network.node[0].core_layer 	data[0] 	177927
scalar one_cache_scenario_3_links_network.node[0].core_layer 	repo_int[0] 	177927
scalar one_cache_scenario_3_links_network.node[0].content_store 	p_hit[0] 	0.010026206121438
scalar one_cache_scenario_3_links_network.node[0].content_store 	hits[0] 	1802
scalar one_cache_scenario_3_links_network.node[0].content_store 	misses[0] 	177927
scalar one_cache_scenario_3_links_network.node[0].content_store 	decision_yes[0] 	1807
scalar one_cache_scenario_3_links_network.node[0].content_store 	decision_no[0] 	176120
scalar one_cache_scenario_3_links_network.node[1].core_layer 	interests[1] 	58704
scalar one_cache_scenario_3_links_network.node[1].core_layer 	data[1] 	58704
scalar one_cache_scenario_3_links_network.node[1].content_store 	p_hit[1] 	0
scalar one_cache_scenario_3_links_network.node[1].content_store 	hits[1] 	0
scalar one_cache_scenario_3_links_network.node[1].content_store 	misses[1] 	58704
scalar one_cache_scenario_3_links_network.node[1].content_store 	decision_yes[1] 	0
scalar one_cache_scenario_3_links_network.node[1].content_store 	decision_no[1] 	58704
scalar one_cache_scenario_3_links_network.node[2].core_layer 	interests[2] 	58609
scalar one_cache_scenario_3_links_network.node[2].core_layer 	data[2] 	58609
scalar one_cache_scenario_3_links_network.node[2].content_store 	p_hit[2] 	0
scalar one_cache_scenario_3_links_network.node[2].content_store 	hits[2] 	0
scalar one_cache_scenario_3_links_network.node[2].content_store 	misses[2] 	58609
scalar one_cache_scenario_3_links_network.node[2].content_store 	decision_yes[2] 	0
scalar one_cache_scenario_3_links_network.node[2].content_store 	decision_no[2] 	58609
scalar one_cache_scenario_3_links_network.node[3].core_layer 	interests[3] 	60614
scalar one_cache_scenario_3_links_network.node[3].core_layer 	data[3] 	60614
scalar one_cache_scenario_3_links_network.node[3].content_store 	p_hit[3] 	0
scalar one_cache_scenario_3_links_network.node[3].content_store 	hits[3] 	0
scalar one_cache_scenario_3_links_network.node[3].content_store 	misses[3] 	60614
scalar one_cache_scenario_3_links_network.node[3].content_store 	decision_yes[3] 	0
scalar one_cache_scenario_3_links_network.node[3].content_store 	decision_no[3] 	60614
scalar one_cache_scenario_3_links_network.node[4].core_layer 	interests[4] 	58704
scalar one_cache_scenario_3_links_network.node[4].core_layer 	repo_load[4] 	58704
scalar one_cache_scenario_3_links_network.node[4].core_layer 	data[4] 	0
scalar one_cache_scenario_3_links_network.node[4].content_store 	p_hit[4] 	0
scalar one_cache_scenario_3_links_network.node[4].content_store 	hits[4] 	0
scalar one_cache_scenario_3_links_network.node[4].content_store 	misses[4] 	58704
scalar one_cache_scenario_3_links_network.node[4].content_store 	decision_yes[4] 	0
scalar one_cache_scenario_3_links_network.node[4].content_store 	decision_no[4] 	58704
scalar one_cache_scenario_3_links_network.node[5].core_layer 	interests[5] 	58609
scalar one_cache_scenario_3_links_network.node[5].core_layer 	repo_load[5] 	58609
scalar one_cache_scenario_3_links_network.node[5].core_layer 	data[5] 	0
scalar one_cache_scenario_3_links_network.node[5].content_store 	p_hit[5] 	0
scalar one_cache_scenario_3_links_network.node[5].content_store 	hits[5] 	0
scalar one_cache_scenario_3_links_network.node[5].content_store 	misses[5] 	58609
scalar one_cache_scenario_3_links_network.node[5].content_store 	decision_yes[5] 	0
scalar one_cache_scenario_3_links_network.node[5].content_store 	decision_no[5] 	58609
scalar one_cache_scenario_3_links_network.node[6].core_layer 	interests[6] 	60614
scalar one_cache_scenario_3_links_network.node[6].core_layer 	repo_load[6] 	60614
scalar one_cache_scenario_3_links_network.node[6].core_layer 	data[6] 	0
scalar one_cache_scenario_3_links_network.node[6].content_store 	p_hit[6] 	0
scalar one_cache_scenario_3_links_network.node[6].content_store 	hits[6] 	0
scalar one_cache_scenario_3_links_network.node[6].content_store 	misses[6] 	60614
scalar one_cache_scenario_3_links_network.node[6].content_store 	decision_yes[6] 	0
scalar one_cache_scenario_3_links_network.node[6].content_store 	decision_no[6] 	60614
scalar one_cache_scenario_3_links_network.client[0] 	hdistance[0] 	1.9799475877571
scalar one_cache_scenario_3_links_network.client[0] 	downloads[0] 	179729
scalar one_cache_scenario_3_links_network.client[0] 	avg_time[0] 	0
scalar one_cache_scenario_3_links_network.client[0] 	interests_sent[0] 	179729
