version 2
run General-0-20150521-10:49:44-32659
attr D lce
attr F nrr
attr R lru
attr a 1
attr configname General
attr datetime 20150521-10:49:44
attr experiment General
attr inifile omnetpp.ini
attr iterationvars "$net=geant, $rep=0, $a=1, $F=nrr, $ttl=1000, $D=lce, $R=lru"
attr iterationvars2 "$net=geant, $rep=0, $a=1, $F=nrr, $ttl=1000, $D=lce, $R=lru, $repetition=0"
attr measurement "$net=geant, $rep=0, $a=1, $F=nrr, $ttl=1000, $D=lce, $R=lru"
attr net geant
attr network networks.${net=geant}_network
attr processid 32659
attr rep 0
attr repetition 0
attr replication #0
attr resultdir results
attr runnumber 0
attr seedset 0
attr ttl 1000

scalar . 	a 	1
scalar . 	rep 	0
scalar . 	ttl 	1000
scalar geant_network.content_distribution 	repo-0 	5
scalar geant_network.content_distribution 	repo-1 	11
scalar geant_network.content_distribution 	repo-2 	12
scalar geant_network.content_distribution 	repo-3 	8
scalar geant_network.content_distribution 	repo-4 	9
scalar geant_network.content_distribution 	repo-5 	15
scalar geant_network.content_distribution 	repo-6 	0
scalar geant_network.content_distribution 	repo-7 	16
scalar geant_network.content_distribution 	repo-8 	1
scalar geant_network.content_distribution 	repo-9 	7
scalar geant_network.content_distribution 	repo-10 	13
scalar geant_network.content_distribution 	client-0 	6
scalar geant_network.content_distribution 	client-1 	18
scalar geant_network.content_distribution 	client-2 	20
scalar geant_network.content_distribution 	client-3 	5
scalar geant_network.content_distribution 	client-4 	11
scalar geant_network.content_distribution 	client-5 	10
scalar geant_network.content_distribution 	client-6 	14
scalar geant_network.content_distribution 	client-7 	4
scalar geant_network.content_distribution 	client-8 	9
scalar geant_network.content_distribution 	client-9 	17
scalar geant_network.content_distribution 	client-10 	0
scalar geant_network.content_distribution 	repo-0_card 	930
scalar geant_network.content_distribution 	repo-0_price 	0
scalar geant_network.content_distribution 	repo-1_card 	837
scalar geant_network.content_distribution 	repo-1_price 	0
scalar geant_network.content_distribution 	repo-2_card 	907
scalar geant_network.content_distribution 	repo-2_price 	0
scalar geant_network.content_distribution 	repo-3_card 	917
scalar geant_network.content_distribution 	repo-3_price 	0
scalar geant_network.content_distribution 	repo-4_card 	886
scalar geant_network.content_distribution 	repo-4_price 	0
scalar geant_network.content_distribution 	repo-5_card 	971
scalar geant_network.content_distribution 	repo-5_price 	0
scalar geant_network.content_distribution 	repo-6_card 	916
scalar geant_network.content_distribution 	repo-6_price 	0
scalar geant_network.content_distribution 	repo-7_card 	937
scalar geant_network.content_distribution 	repo-7_price 	0
scalar geant_network.content_distribution 	repo-8_card 	889
scalar geant_network.content_distribution 	repo-8_price 	0
scalar geant_network.content_distribution 	repo-9_card 	894
scalar geant_network.content_distribution 	repo-9_price 	0
scalar geant_network.content_distribution 	repo-10_card 	916
scalar geant_network.content_distribution 	repo-10_price 	0
scalar geant_network.statistics 	p_hit 	0.24995937224312
scalar geant_network.statistics 	interests 	7831.6363636364
scalar geant_network.statistics 	data 	4567.9545454545
scalar geant_network.statistics 	hdistance 	1.8012966924156
scalar geant_network.statistics 	avg_time 	0.013079741002
scalar geant_network.statistics 	downloads 	71801
scalar geant_network.statistics 	total_cost 	0
scalar geant_network.statistics 	total_replicas 	10000
scalar geant_network.statistics 	inner_hit 	0.59981058759627
scalar geant_network.statistics 	interests_sent 	71801
scalar geant_network.node[0].core_layer 	interests[0] 	9517
scalar geant_network.node[0].core_layer 	repo_load[0] 	2723
scalar geant_network.node[0].core_layer 	data[0] 	4323
scalar geant_network.node[0].core_layer 	repo_int[0] 	28734
scalar geant_network.node[0].content_store 	p_hit[0] 	0.25964064305979
scalar geant_network.node[0].content_store 	hits[0] 	2471
scalar geant_network.node[0].content_store 	misses[0] 	7046
scalar geant_network.node[0].content_store 	decision_yes[0] 	7046
scalar geant_network.node[0].content_store 	decision_no[0] 	0
scalar geant_network.node[0].content_store 	decision_ratio[0] 	1
scalar geant_network.node[1].core_layer 	interests[1] 	6883
scalar geant_network.node[1].core_layer 	repo_load[1] 	2443
scalar geant_network.node[1].core_layer 	data[1] 	3778
scalar geant_network.node[1].content_store 	p_hit[1] 	0.096178991718727
scalar geant_network.node[1].content_store 	hits[1] 	662
scalar geant_network.node[1].content_store 	misses[1] 	6221
scalar geant_network.node[1].content_store 	decision_yes[1] 	6221
scalar geant_network.node[1].content_store 	decision_no[1] 	0
scalar geant_network.node[1].content_store 	decision_ratio[1] 	1
scalar geant_network.node[2].core_layer 	interests[2] 	0
scalar geant_network.node[2].core_layer 	data[2] 	0
scalar geant_network.node[2].content_store 	p_hit[2] 	-nan
scalar geant_network.node[2].content_store 	hits[2] 	0
scalar geant_network.node[2].content_store 	misses[2] 	0
scalar geant_network.node[2].content_store 	decision_yes[2] 	0
scalar geant_network.node[2].content_store 	decision_no[2] 	0
scalar geant_network.node[2].content_store 	decision_ratio[2] 	0
scalar geant_network.node[3].core_layer 	interests[3] 	9631
scalar geant_network.node[3].core_layer 	data[3] 	8894
scalar geant_network.node[3].content_store 	p_hit[3] 	0.076523725469837
scalar geant_network.node[3].content_store 	hits[3] 	737
scalar geant_network.node[3].content_store 	misses[3] 	8894
scalar geant_network.node[3].content_store 	decision_yes[3] 	8894
scalar geant_network.node[3].content_store 	decision_no[3] 	0
scalar geant_network.node[3].content_store 	decision_ratio[3] 	1
scalar geant_network.node[4].core_layer 	interests[4] 	12904
scalar geant_network.node[4].core_layer 	data[4] 	9881
scalar geant_network.node[4].content_store 	p_hit[4] 	0.23426844389337
scalar geant_network.node[4].content_store 	hits[4] 	3023
scalar geant_network.node[4].content_store 	misses[4] 	9881
scalar geant_network.node[4].content_store 	decision_yes[4] 	9881
scalar geant_network.node[4].content_store 	decision_no[4] 	0
scalar geant_network.node[4].content_store 	decision_ratio[4] 	1
scalar geant_network.node[5].core_layer 	interests[5] 	12174
scalar geant_network.node[5].core_layer 	repo_load[5] 	3052
scalar geant_network.node[5].core_layer 	data[5] 	6050
scalar geant_network.node[5].content_store 	p_hit[5] 	0.25234105470675
scalar geant_network.node[5].content_store 	hits[5] 	3072
scalar geant_network.node[5].content_store 	misses[5] 	9102
scalar geant_network.node[5].content_store 	decision_yes[5] 	9102
scalar geant_network.node[5].content_store 	decision_no[5] 	0
scalar geant_network.node[5].content_store 	decision_ratio[5] 	1
scalar geant_network.node[6].core_layer 	interests[6] 	7813
scalar geant_network.node[6].core_layer 	data[6] 	4569
scalar geant_network.node[6].content_store 	p_hit[6] 	0.41520542685268
scalar geant_network.node[6].content_store 	hits[6] 	3244
scalar geant_network.node[6].content_store 	misses[6] 	4569
scalar geant_network.node[6].content_store 	decision_yes[6] 	4569
scalar geant_network.node[6].content_store 	decision_no[6] 	0
scalar geant_network.node[6].content_store 	decision_ratio[6] 	1
scalar geant_network.node[7].core_layer 	interests[7] 	6952
scalar geant_network.node[7].core_layer 	repo_load[7] 	2594
scalar geant_network.node[7].core_layer 	data[7] 	3727
scalar geant_network.node[7].content_store 	p_hit[7] 	0.090765247410817
scalar geant_network.node[7].content_store 	hits[7] 	631
scalar geant_network.node[7].content_store 	misses[7] 	6321
scalar geant_network.node[7].content_store 	decision_yes[7] 	6321
scalar geant_network.node[7].content_store 	decision_no[7] 	0
scalar geant_network.node[7].content_store 	decision_ratio[7] 	1
scalar geant_network.node[8].core_layer 	interests[8] 	4664
scalar geant_network.node[8].core_layer 	repo_load[8] 	2450
scalar geant_network.node[8].core_layer 	data[8] 	1707
scalar geant_network.node[8].content_store 	p_hit[8] 	0.10870497427101
scalar geant_network.node[8].content_store 	hits[8] 	507
scalar geant_network.node[8].content_store 	misses[8] 	4157
scalar geant_network.node[8].content_store 	decision_yes[8] 	4157
scalar geant_network.node[8].content_store 	decision_no[8] 	0
scalar geant_network.node[8].content_store 	decision_ratio[8] 	1
scalar geant_network.node[9].core_layer 	interests[9] 	12470
scalar geant_network.node[9].core_layer 	repo_load[9] 	2713
scalar geant_network.node[9].core_layer 	data[9] 	7184
scalar geant_network.node[9].content_store 	p_hit[9] 	0.20633520449078
scalar geant_network.node[9].content_store 	hits[9] 	2573
scalar geant_network.node[9].content_store 	misses[9] 	9897
scalar geant_network.node[9].content_store 	decision_yes[9] 	9897
scalar geant_network.node[9].content_store 	decision_no[9] 	0
scalar geant_network.node[9].content_store 	decision_ratio[9] 	1
scalar geant_network.node[10].core_layer 	interests[10] 	8351
scalar geant_network.node[10].core_layer 	data[10] 	4695
scalar geant_network.node[10].content_store 	p_hit[10] 	0.43779188121183
scalar geant_network.node[10].content_store 	hits[10] 	3656
scalar geant_network.node[10].content_store 	misses[10] 	4695
scalar geant_network.node[10].content_store 	decision_yes[10] 	4695
scalar geant_network.node[10].content_store 	decision_no[10] 	0
scalar geant_network.node[10].content_store 	decision_ratio[10] 	1
scalar geant_network.node[11].core_layer 	interests[11] 	9040
scalar geant_network.node[11].core_layer 	repo_load[11] 	2424
scalar geant_network.node[11].core_layer 	data[11] 	3713
scalar geant_network.node[11].content_store 	p_hit[11] 	0.32112831858407
scalar geant_network.node[11].content_store 	hits[11] 	2903
scalar geant_network.node[11].content_store 	misses[11] 	6137
scalar geant_network.node[11].content_store 	decision_yes[11] 	6137
scalar geant_network.node[11].content_store 	decision_no[11] 	0
scalar geant_network.node[11].content_store 	decision_ratio[11] 	1
scalar geant_network.node[12].core_layer 	interests[12] 	12923
scalar geant_network.node[12].core_layer 	repo_load[12] 	2955
scalar geant_network.node[12].core_layer 	data[12] 	9504
scalar geant_network.node[12].content_store 	p_hit[12] 	0.035904975624855
scalar geant_network.node[12].content_store 	hits[12] 	464
scalar geant_network.node[12].content_store 	misses[12] 	12459
scalar geant_network.node[12].content_store 	decision_yes[12] 	12459
scalar geant_network.node[12].content_store 	decision_no[12] 	0
scalar geant_network.node[12].content_store 	decision_ratio[12] 	1
scalar geant_network.node[13].core_layer 	interests[13] 	4906
scalar geant_network.node[13].core_layer 	repo_load[13] 	2490
scalar geant_network.node[13].core_layer 	data[13] 	1706
scalar geant_network.node[13].content_store 	p_hit[13] 	0.14472075010192
scalar geant_network.node[13].content_store 	hits[13] 	710
scalar geant_network.node[13].content_store 	misses[13] 	4196
scalar geant_network.node[13].content_store 	decision_yes[13] 	4196
scalar geant_network.node[13].content_store 	decision_no[13] 	0
scalar geant_network.node[13].content_store 	decision_ratio[13] 	1
scalar geant_network.node[14].core_layer 	interests[14] 	13106
scalar geant_network.node[14].core_layer 	data[14] 	9599
scalar geant_network.node[14].content_store 	p_hit[14] 	0.26758736456585
scalar geant_network.node[14].content_store 	hits[14] 	3507
scalar geant_network.node[14].content_store 	misses[14] 	9599
scalar geant_network.node[14].content_store 	decision_yes[14] 	9599
scalar geant_network.node[14].content_store 	decision_no[14] 	0
scalar geant_network.node[14].content_store 	decision_ratio[14] 	1
scalar geant_network.node[15].core_layer 	interests[15] 	6819
scalar geant_network.node[15].core_layer 	repo_load[15] 	2586
scalar geant_network.node[15].core_layer 	data[15] 	3092
scalar geant_network.node[15].content_store 	p_hit[15] 	0.16732658747617
scalar geant_network.node[15].content_store 	hits[15] 	1141
scalar geant_network.node[15].content_store 	misses[15] 	5678
scalar geant_network.node[15].content_store 	decision_yes[15] 	5678
scalar geant_network.node[15].content_store 	decision_no[15] 	0
scalar geant_network.node[15].content_store 	decision_ratio[15] 	1
scalar geant_network.node[16].core_layer 	interests[16] 	3053
scalar geant_network.node[16].core_layer 	repo_load[16] 	2304
scalar geant_network.node[16].core_layer 	data[16] 	0
scalar geant_network.node[16].content_store 	p_hit[16] 	0.24533245987553
scalar geant_network.node[16].content_store 	hits[16] 	749
scalar geant_network.node[16].content_store 	misses[16] 	2304
scalar geant_network.node[16].content_store 	decision_yes[16] 	2304
scalar geant_network.node[16].content_store 	decision_no[16] 	0
scalar geant_network.node[16].content_store 	decision_ratio[16] 	1
scalar geant_network.node[17].core_layer 	interests[17] 	7861
scalar geant_network.node[17].core_layer 	data[17] 	4465
scalar geant_network.node[17].content_store 	p_hit[17] 	0.43200610609337
scalar geant_network.node[17].content_store 	hits[17] 	3396
scalar geant_network.node[17].content_store 	misses[17] 	4465
scalar geant_network.node[17].content_store 	decision_yes[17] 	4465
scalar geant_network.node[17].content_store 	decision_no[17] 	0
scalar geant_network.node[17].content_store 	decision_ratio[17] 	1
scalar geant_network.node[18].core_layer 	interests[18] 	11102
scalar geant_network.node[18].core_layer 	data[18] 	6969
scalar geant_network.node[18].content_store 	p_hit[18] 	0.37227526571789
scalar geant_network.node[18].content_store 	hits[18] 	4133
scalar geant_network.node[18].content_store 	misses[18] 	6969
scalar geant_network.node[18].content_store 	decision_yes[18] 	6969
scalar geant_network.node[18].content_store 	decision_no[18] 	0
scalar geant_network.node[18].content_store 	decision_ratio[18] 	1
scalar geant_network.node[19].core_layer 	interests[19] 	0
scalar geant_network.node[19].core_layer 	data[19] 	0
scalar geant_network.node[19].content_store 	p_hit[19] 	-nan
scalar geant_network.node[19].content_store 	hits[19] 	0
scalar geant_network.node[19].content_store 	misses[19] 	0
scalar geant_network.node[19].content_store 	decision_yes[19] 	0
scalar geant_network.node[19].content_store 	decision_no[19] 	0
scalar geant_network.node[19].content_store 	decision_ratio[19] 	0
scalar geant_network.node[20].core_layer 	interests[20] 	7203
scalar geant_network.node[20].core_layer 	data[20] 	3946
scalar geant_network.node[20].content_store 	p_hit[20] 	0.45217270581702
scalar geant_network.node[20].content_store 	hits[20] 	3257
scalar geant_network.node[20].content_store 	misses[20] 	3946
scalar geant_network.node[20].content_store 	decision_yes[20] 	3946
scalar geant_network.node[20].content_store 	decision_no[20] 	0
scalar geant_network.node[20].content_store 	decision_ratio[20] 	1
scalar geant_network.node[21].core_layer 	interests[21] 	4924
scalar geant_network.node[21].core_layer 	data[21] 	2693
scalar geant_network.node[21].content_store 	p_hit[21] 	0.45308692120227
scalar geant_network.node[21].content_store 	hits[21] 	2231
scalar geant_network.node[21].content_store 	misses[21] 	2693
scalar geant_network.node[21].content_store 	decision_yes[21] 	2693
scalar geant_network.node[21].content_store 	decision_no[21] 	0
scalar geant_network.node[21].content_store 	decision_ratio[21] 	1
scalar geant_network.client[0] 	hdistance[0] 	1.9372531145548
scalar geant_network.client[0] 	downloads[0] 	6582
scalar geant_network.client[0] 	avg_time[0] 	0.033045644056
scalar geant_network.client[0] 	interests_sent[0] 	6582
scalar geant_network.client[4] 	hdistance[4] 	1.5809996988859
scalar geant_network.client[4] 	downloads[4] 	6642
scalar geant_network.client[4] 	avg_time[4] 	0.007111799005
scalar geant_network.client[4] 	interests_sent[4] 	6642
scalar geant_network.client[5] 	hdistance[5] 	1.656671210056
scalar geant_network.client[5] 	downloads[5] 	6603
scalar geant_network.client[5] 	avg_time[5] 	0.009864990018
scalar geant_network.client[5] 	interests_sent[5] 	6603
scalar geant_network.client[6] 	hdistance[6] 	1.9065121244472
scalar geant_network.client[6] 	downloads[6] 	6557
scalar geant_network.client[6] 	avg_time[6] 	0.010226336623
scalar geant_network.client[6] 	interests_sent[6] 	6557
scalar geant_network.client[9] 	hdistance[9] 	1.7230957105785
scalar geant_network.client[9] 	downloads[9] 	6551
scalar geant_network.client[9] 	avg_time[9] 	0.011015186886
scalar geant_network.client[9] 	interests_sent[9] 	6551
scalar geant_network.client[10] 	hdistance[10] 	2.0735707591378
scalar geant_network.client[10] 	downloads[10] 	6402
scalar geant_network.client[10] 	avg_time[10] 	0.011052522627
scalar geant_network.client[10] 	interests_sent[10] 	6402
scalar geant_network.client[11] 	hdistance[11] 	1.8387650085763
scalar geant_network.client[11] 	downloads[11] 	6413
scalar geant_network.client[11] 	avg_time[11] 	0.011686447798
scalar geant_network.client[11] 	interests_sent[11] 	6413
scalar geant_network.client[14] 	hdistance[14] 	1.5605697151424
scalar geant_network.client[14] 	downloads[14] 	6670
scalar geant_network.client[14] 	avg_time[14] 	0.016876214229
scalar geant_network.client[14] 	interests_sent[14] 	6670
scalar geant_network.client[17] 	hdistance[17] 	1.6691426802847
scalar geant_network.client[17] 	downloads[17] 	6462
scalar geant_network.client[17] 	avg_time[17] 	0.01154063288
scalar geant_network.client[17] 	interests_sent[17] 	6462
scalar geant_network.client[18] 	hdistance[18] 	1.7163230506898
scalar geant_network.client[18] 	downloads[18] 	6451
scalar geant_network.client[18] 	avg_time[18] 	0.009060866475
scalar geant_network.client[18] 	interests_sent[18] 	6451
scalar geant_network.client[20] 	hdistance[20] 	2.1513605442177
scalar geant_network.client[20] 	downloads[20] 	6468
scalar geant_network.client[20] 	avg_time[20] 	0.012396510427
scalar geant_network.client[20] 	interests_sent[20] 	6468
