version 2
run General-781-20140502-02:33:20-9679
attr D fix0.1
attr F nrr
attr R lru
attr a 1.2
attr configname General
attr csize 1e3
attr ctlg 1e5
attr datetime 20140502-02:33:20
attr experiment General
attr inifile omnetpp.ini
attr iterationvars "$net=three_caches_scenario_3_links, $rep=2, $priceratiovalue=2, $weights=0.2_0.4_0.4, $a=1.2, $ctlg=1e5, $F=nrr, $ttl=1000, $D=fix0.1, $xi=1, $R=lru, $csize=1e3"
attr iterationvars2 "$net=three_caches_scenario_3_links, $rep=2, $priceratiovalue=2, $weights=0.2_0.4_0.4, $a=1.2, $ctlg=1e5, $F=nrr, $ttl=1000, $D=fix0.1, $xi=1, $R=lru, $csize=1e3, $repetition=0"
attr measurement "$net=three_caches_scenario_3_links, $rep=2, $priceratiovalue=2, $weights=0.2_0.4_0.4, $a=1.2, $ctlg=1e5, $F=nrr, $ttl=1000, $D=fix0.1, $xi=1, $R=lru, $csize=1e3"
attr net three_caches_scenario_3_links
attr network networks.${net=three_caches_scenario_3_links}_network
attr priceratiovalue 2
attr processid 9679
attr rep 2
attr repetition 0
attr replication #0
attr resultdir results
attr runnumber 781
attr seedset 2
attr ttl 1000
attr weights 0.2_0.4_0.4
attr xi 1

scalar . 	a 	1.2
scalar . 	csize 	1e3
scalar . 	ctlg 	1e5
scalar . 	priceratiovalue 	2
scalar . 	rep 	2
scalar . 	ttl 	1000
scalar . 	xi 	1
scalar three_caches_scenario_3_links_network.content_distribution 	repo-0 	4
scalar three_caches_scenario_3_links_network.content_distribution 	repo-1 	5
scalar three_caches_scenario_3_links_network.content_distribution 	repo-2 	6
scalar three_caches_scenario_3_links_network.content_distribution 	client-0 	0
scalar three_caches_scenario_3_links_network.content_distribution 	repo-0_card 	20021
scalar three_caches_scenario_3_links_network.content_distribution 	repo-1_card 	39941
scalar three_caches_scenario_3_links_network.content_distribution 	repo-2_card 	40038
scalar three_caches_scenario_3_links_network.statistics 	p_hit 	0.55683622350674
scalar three_caches_scenario_3_links_network.statistics 	interests 	37071.428571429
scalar three_caches_scenario_3_links_network.statistics 	data 	11376.857142857
scalar three_caches_scenario_3_links_network.statistics 	hdistance 	0.58998565566935
scalar three_caches_scenario_3_links_network.statistics 	avg_time 	0
scalar three_caches_scenario_3_links_network.statistics 	downloads 	179862
scalar three_caches_scenario_3_links_network.statistics 	total_cost 	40028
scalar three_caches_scenario_3_links_network.statistics 	total_replicas 	100000
scalar three_caches_scenario_3_links_network.statistics 	interests_sent 	179862
scalar three_caches_scenario_3_links_network.node[0].core_layer 	interests[0] 	179862
scalar three_caches_scenario_3_links_network.node[0].core_layer 	data[0] 	44275
scalar three_caches_scenario_3_links_network.node[0].core_layer 	repo_int[0] 	35363
scalar three_caches_scenario_3_links_network.node[0].content_store 	p_hit[0] 	0.75383905438614
scalar three_caches_scenario_3_links_network.node[0].content_store 	hits[0] 	135587
scalar three_caches_scenario_3_links_network.node[0].content_store 	misses[0] 	44275
scalar three_caches_scenario_3_links_network.node[0].content_store 	decision_yes[0] 	4511
scalar three_caches_scenario_3_links_network.node[0].content_store 	decision_no[0] 	39764
scalar three_caches_scenario_3_links_network.node[1].core_layer 	interests[1] 	8885
scalar three_caches_scenario_3_links_network.node[1].core_layer 	data[1] 	8885
scalar three_caches_scenario_3_links_network.node[1].content_store 	p_hit[1] 	0
scalar three_caches_scenario_3_links_network.node[1].content_store 	hits[1] 	0
scalar three_caches_scenario_3_links_network.node[1].content_store 	misses[1] 	8885
scalar three_caches_scenario_3_links_network.node[1].content_store 	decision_yes[1] 	0
scalar three_caches_scenario_3_links_network.node[1].content_store 	decision_no[1] 	8885
scalar three_caches_scenario_3_links_network.node[2].core_layer 	interests[2] 	17095
scalar three_caches_scenario_3_links_network.node[2].core_layer 	data[2] 	12928
scalar three_caches_scenario_3_links_network.node[2].content_store 	p_hit[2] 	0.24375548405967
scalar three_caches_scenario_3_links_network.node[2].content_store 	hits[2] 	4167
scalar three_caches_scenario_3_links_network.node[2].content_store 	misses[2] 	12928
scalar three_caches_scenario_3_links_network.node[2].content_store 	decision_yes[2] 	1317
scalar three_caches_scenario_3_links_network.node[2].content_store 	decision_no[2] 	11611
scalar three_caches_scenario_3_links_network.node[3].core_layer 	interests[3] 	18295
scalar three_caches_scenario_3_links_network.node[3].core_layer 	data[3] 	13550
scalar three_caches_scenario_3_links_network.node[3].content_store 	p_hit[3] 	0.25936048100574
scalar three_caches_scenario_3_links_network.node[3].content_store 	hits[3] 	4745
scalar three_caches_scenario_3_links_network.node[3].content_store 	misses[3] 	13550
scalar three_caches_scenario_3_links_network.node[3].content_store 	decision_yes[3] 	1381
scalar three_caches_scenario_3_links_network.node[3].content_store 	decision_no[3] 	12169
scalar three_caches_scenario_3_links_network.node[4].core_layer 	interests[4] 	8885
scalar three_caches_scenario_3_links_network.node[4].core_layer 	repo_load[4] 	8885
scalar three_caches_scenario_3_links_network.node[4].core_layer 	data[4] 	0
scalar three_caches_scenario_3_links_network.node[4].content_store 	p_hit[4] 	0
scalar three_caches_scenario_3_links_network.node[4].content_store 	hits[4] 	0
scalar three_caches_scenario_3_links_network.node[4].content_store 	misses[4] 	8885
scalar three_caches_scenario_3_links_network.node[4].content_store 	decision_yes[4] 	0
scalar three_caches_scenario_3_links_network.node[4].content_store 	decision_no[4] 	8885
scalar three_caches_scenario_3_links_network.node[5].core_layer 	interests[5] 	12928
scalar three_caches_scenario_3_links_network.node[5].core_layer 	repo_load[5] 	12928
scalar three_caches_scenario_3_links_network.node[5].core_layer 	data[5] 	0
scalar three_caches_scenario_3_links_network.node[5].content_store 	p_hit[5] 	0
scalar three_caches_scenario_3_links_network.node[5].content_store 	hits[5] 	0
scalar three_caches_scenario_3_links_network.node[5].content_store 	misses[5] 	12928
scalar three_caches_scenario_3_links_network.node[5].content_store 	decision_yes[5] 	0
scalar three_caches_scenario_3_links_network.node[5].content_store 	decision_no[5] 	12928
scalar three_caches_scenario_3_links_network.node[6].core_layer 	interests[6] 	13550
scalar three_caches_scenario_3_links_network.node[6].core_layer 	repo_load[6] 	13550
scalar three_caches_scenario_3_links_network.node[6].core_layer 	data[6] 	0
scalar three_caches_scenario_3_links_network.node[6].content_store 	p_hit[6] 	0
scalar three_caches_scenario_3_links_network.node[6].content_store 	hits[6] 	0
scalar three_caches_scenario_3_links_network.node[6].content_store 	misses[6] 	13550
scalar three_caches_scenario_3_links_network.node[6].content_store 	decision_yes[6] 	0
scalar three_caches_scenario_3_links_network.node[6].content_store 	decision_no[6] 	13550
scalar three_caches_scenario_3_links_network.client[0] 	hdistance[0] 	0.58998565566935
scalar three_caches_scenario_3_links_network.client[0] 	downloads[0] 	179862
scalar three_caches_scenario_3_links_network.client[0] 	avg_time[0] 	0
scalar three_caches_scenario_3_links_network.client[0] 	interests_sent[0] 	179862
