version 2
run General-1933-20140502-04:46:10-10867
attr D fix0.1
attr F nrr
attr R lru
attr a 1.2
attr configname General
attr csize 1e3
attr ctlg 1e5
attr datetime 20140502-04:46:10
attr experiment General
attr inifile omnetpp.ini
attr iterationvars "$net=three_caches_scenario_3_links, $rep=4, $priceratiovalue=2, $weights=0.2_0.4_0.4, $a=1.2, $ctlg=1e5, $F=nrr, $ttl=1000, $D=fix0.1, $xi=1, $R=lru, $csize=1e3"
attr iterationvars2 "$net=three_caches_scenario_3_links, $rep=4, $priceratiovalue=2, $weights=0.2_0.4_0.4, $a=1.2, $ctlg=1e5, $F=nrr, $ttl=1000, $D=fix0.1, $xi=1, $R=lru, $csize=1e3, $repetition=0"
attr measurement "$net=three_caches_scenario_3_links, $rep=4, $priceratiovalue=2, $weights=0.2_0.4_0.4, $a=1.2, $ctlg=1e5, $F=nrr, $ttl=1000, $D=fix0.1, $xi=1, $R=lru, $csize=1e3"
attr net three_caches_scenario_3_links
attr network networks.${net=three_caches_scenario_3_links}_network
attr priceratiovalue 2
attr processid 10867
attr rep 4
attr repetition 0
attr replication #0
attr resultdir results
attr runnumber 1933
attr seedset 4
attr ttl 1000
attr weights 0.2_0.4_0.4
attr xi 1

scalar . 	a 	1.2
scalar . 	csize 	1e3
scalar . 	ctlg 	1e5
scalar . 	priceratiovalue 	2
scalar . 	rep 	4
scalar . 	ttl 	1000
scalar . 	xi 	1
scalar three_caches_scenario_3_links_network.content_distribution 	repo-0 	4
scalar three_caches_scenario_3_links_network.content_distribution 	repo-1 	5
scalar three_caches_scenario_3_links_network.content_distribution 	repo-2 	6
scalar three_caches_scenario_3_links_network.content_distribution 	client-0 	0
scalar three_caches_scenario_3_links_network.content_distribution 	repo-0_card 	20142
scalar three_caches_scenario_3_links_network.content_distribution 	repo-1_card 	39937
scalar three_caches_scenario_3_links_network.content_distribution 	repo-2_card 	39921
scalar three_caches_scenario_3_links_network.statistics 	p_hit 	0.5548633850345
scalar three_caches_scenario_3_links_network.statistics 	interests 	37127.285714286
scalar three_caches_scenario_3_links_network.statistics 	data 	11414.285714286
scalar three_caches_scenario_3_links_network.statistics 	hdistance 	0.59064064314327
scalar three_caches_scenario_3_links_network.statistics 	avg_time 	0
scalar three_caches_scenario_3_links_network.statistics 	downloads 	179991
scalar three_caches_scenario_3_links_network.statistics 	total_cost 	39594
scalar three_caches_scenario_3_links_network.statistics 	total_replicas 	100000
scalar three_caches_scenario_3_links_network.statistics 	interests_sent 	179991
scalar three_caches_scenario_3_links_network.node[0].core_layer 	interests[0] 	179991
scalar three_caches_scenario_3_links_network.node[0].core_layer 	data[0] 	44113
scalar three_caches_scenario_3_links_network.node[0].core_layer 	repo_int[0] 	35787
scalar three_caches_scenario_3_links_network.node[0].content_store 	p_hit[0] 	0.75491552355396
scalar three_caches_scenario_3_links_network.node[0].content_store 	hits[0] 	135878
scalar three_caches_scenario_3_links_network.node[0].content_store 	misses[0] 	44113
scalar three_caches_scenario_3_links_network.node[0].content_store 	decision_yes[0] 	4496
scalar three_caches_scenario_3_links_network.node[0].content_store 	decision_no[0] 	39617
scalar three_caches_scenario_3_links_network.node[1].core_layer 	interests[1] 	9377
scalar three_caches_scenario_3_links_network.node[1].core_layer 	data[1] 	9377
scalar three_caches_scenario_3_links_network.node[1].content_store 	p_hit[1] 	0
scalar three_caches_scenario_3_links_network.node[1].content_store 	hits[1] 	0
scalar three_caches_scenario_3_links_network.node[1].content_store 	misses[1] 	9377
scalar three_caches_scenario_3_links_network.node[1].content_store 	decision_yes[1] 	0
scalar three_caches_scenario_3_links_network.node[1].content_store 	decision_no[1] 	9377
scalar three_caches_scenario_3_links_network.node[2].core_layer 	interests[2] 	17304
scalar three_caches_scenario_3_links_network.node[2].core_layer 	data[2] 	13226
scalar three_caches_scenario_3_links_network.node[2].content_store 	p_hit[2] 	0.23566805362922
scalar three_caches_scenario_3_links_network.node[2].content_store 	hits[2] 	4078
scalar three_caches_scenario_3_links_network.node[2].content_store 	misses[2] 	13226
scalar three_caches_scenario_3_links_network.node[2].content_store 	decision_yes[2] 	1403
scalar three_caches_scenario_3_links_network.node[2].content_store 	decision_no[2] 	11823
scalar three_caches_scenario_3_links_network.node[3].core_layer 	interests[3] 	17432
scalar three_caches_scenario_3_links_network.node[3].core_layer 	data[3] 	13184
scalar three_caches_scenario_3_links_network.node[3].content_store 	p_hit[3] 	0.24368976594768
scalar three_caches_scenario_3_links_network.node[3].content_store 	hits[3] 	4248
scalar three_caches_scenario_3_links_network.node[3].content_store 	misses[3] 	13184
scalar three_caches_scenario_3_links_network.node[3].content_store 	decision_yes[3] 	1241
scalar three_caches_scenario_3_links_network.node[3].content_store 	decision_no[3] 	11943
scalar three_caches_scenario_3_links_network.node[4].core_layer 	interests[4] 	9377
scalar three_caches_scenario_3_links_network.node[4].core_layer 	repo_load[4] 	9377
scalar three_caches_scenario_3_links_network.node[4].core_layer 	data[4] 	0
scalar three_caches_scenario_3_links_network.node[4].content_store 	p_hit[4] 	0
scalar three_caches_scenario_3_links_network.node[4].content_store 	hits[4] 	0
scalar three_caches_scenario_3_links_network.node[4].content_store 	misses[4] 	9377
scalar three_caches_scenario_3_links_network.node[4].content_store 	decision_yes[4] 	0
scalar three_caches_scenario_3_links_network.node[4].content_store 	decision_no[4] 	9377
scalar three_caches_scenario_3_links_network.node[5].core_layer 	interests[5] 	13226
scalar three_caches_scenario_3_links_network.node[5].core_layer 	repo_load[5] 	13226
scalar three_caches_scenario_3_links_network.node[5].core_layer 	data[5] 	0
scalar three_caches_scenario_3_links_network.node[5].content_store 	p_hit[5] 	0
scalar three_caches_scenario_3_links_network.node[5].content_store 	hits[5] 	0
scalar three_caches_scenario_3_links_network.node[5].content_store 	misses[5] 	13226
scalar three_caches_scenario_3_links_network.node[5].content_store 	decision_yes[5] 	0
scalar three_caches_scenario_3_links_network.node[5].content_store 	decision_no[5] 	13226
scalar three_caches_scenario_3_links_network.node[6].core_layer 	interests[6] 	13184
scalar three_caches_scenario_3_links_network.node[6].core_layer 	repo_load[6] 	13184
scalar three_caches_scenario_3_links_network.node[6].core_layer 	data[6] 	0
scalar three_caches_scenario_3_links_network.node[6].content_store 	p_hit[6] 	0
scalar three_caches_scenario_3_links_network.node[6].content_store 	hits[6] 	0
scalar three_caches_scenario_3_links_network.node[6].content_store 	misses[6] 	13184
scalar three_caches_scenario_3_links_network.node[6].content_store 	decision_yes[6] 	0
scalar three_caches_scenario_3_links_network.node[6].content_store 	decision_no[6] 	13184
scalar three_caches_scenario_3_links_network.client[0] 	hdistance[0] 	0.59064064314327
scalar three_caches_scenario_3_links_network.client[0] 	downloads[0] 	179991
scalar three_caches_scenario_3_links_network.client[0] 	avg_time[0] 	0
scalar three_caches_scenario_3_links_network.client[0] 	interests_sent[0] 	179991
