version 2
run General-0-20150311-18:59:35-28953
attr D lce
attr F spr
attr R lru
attr a 0.5
attr configname General
attr datetime 20150311-18:59:35
attr experiment General
attr inifile omnetpp.ini
attr iterationvars "$net=abilene, $rep=0, $a=0.5, $F=spr, $ttl=1000, $D=lce, $R=lru"
attr iterationvars2 "$net=abilene, $rep=0, $a=0.5, $F=spr, $ttl=1000, $D=lce, $R=lru, $repetition=0"
attr measurement "$net=abilene, $rep=0, $a=0.5, $F=spr, $ttl=1000, $D=lce, $R=lru"
attr net abilene
attr network networks.${net=abilene}_network
attr processid 28953
attr rep 0
attr repetition 0
attr replication #0
attr resultdir results
attr runnumber 0
attr seedset 0
attr ttl 1000

scalar . 	a 	0.5
scalar . 	rep 	0
scalar . 	ttl 	1000
scalar abilene_network.content_distribution 	repo-0 	5
scalar abilene_network.content_distribution 	client-0 	8
scalar abilene_network.content_distribution 	client-1 	9
scalar abilene_network.content_distribution 	client-2 	5
scalar abilene_network.content_distribution 	client-3 	0
scalar abilene_network.content_distribution 	client-4 	1
scalar abilene_network.content_distribution 	client-5 	7
scalar abilene_network.content_distribution 	client-6 	6
scalar abilene_network.content_distribution 	client-7 	2
scalar abilene_network.content_distribution 	client-8 	4
scalar abilene_network.content_distribution 	client-9 	10
scalar abilene_network.content_distribution 	client-10 	3
scalar abilene_network.content_distribution 	repo-0_card 	10000
scalar abilene_network.content_distribution 	repo-0_price 	0
scalar abilene_network.statistics 	stabilization_time 	167.4
scalar abilene_network.statistics 	p_hit 	0.011737219011806
scalar abilene_network.statistics 	interests 	6575.8181818182
scalar abilene_network.statistics 	data 	4770.6363636364
scalar abilene_network.statistics 	hdistance 	3.5998022504303
scalar abilene_network.statistics 	avg_time 	0.014914211316
scalar abilene_network.statistics 	downloads 	19855
scalar abilene_network.statistics 	total_cost 	0
scalar abilene_network.statistics 	total_replicas 	10000
scalar abilene_network.statistics 	inner_hit 	0.042760010073029
scalar abilene_network.node[0].core_layer 	interests[0] 	1805
scalar abilene_network.node[0].core_layer 	data[0] 	1772
scalar abilene_network.node[0].core_layer 	repo_int[0] 	19006
scalar abilene_network.node[0].content_store 	p_hit[0] 	0.018282548476454
scalar abilene_network.node[0].content_store 	hits[0] 	33
scalar abilene_network.node[0].content_store 	misses[0] 	1772
scalar abilene_network.node[0].content_store 	decision_yes[0] 	1772
scalar abilene_network.node[0].content_store 	decision_no[0] 	0
scalar abilene_network.node[0].content_store 	decision_ratio[0] 	1
scalar abilene_network.node[1].core_layer 	interests[1] 	5354
scalar abilene_network.node[1].core_layer 	data[1] 	5259
scalar abilene_network.node[1].content_store 	p_hit[1] 	0.017743742995891
scalar abilene_network.node[1].content_store 	hits[1] 	95
scalar abilene_network.node[1].content_store 	misses[1] 	5259
scalar abilene_network.node[1].content_store 	decision_yes[1] 	5259
scalar abilene_network.node[1].content_store 	decision_no[1] 	0
scalar abilene_network.node[1].content_store 	decision_ratio[1] 	1
scalar abilene_network.node[2].core_layer 	interests[2] 	7026
scalar abilene_network.node[2].core_layer 	data[2] 	6954
scalar abilene_network.node[2].content_store 	p_hit[2] 	0.010247651579846
scalar abilene_network.node[2].content_store 	hits[2] 	72
scalar abilene_network.node[2].content_store 	misses[2] 	6954
scalar abilene_network.node[2].content_store 	decision_yes[2] 	6954
scalar abilene_network.node[2].content_store 	decision_no[2] 	0
scalar abilene_network.node[2].content_store 	decision_ratio[2] 	1
scalar abilene_network.node[3].core_layer 	interests[3] 	8774
scalar abilene_network.node[3].core_layer 	data[3] 	8705
scalar abilene_network.node[3].content_store 	p_hit[3] 	0.0078641440620014
scalar abilene_network.node[3].content_store 	hits[3] 	69
scalar abilene_network.node[3].content_store 	misses[3] 	8705
scalar abilene_network.node[3].content_store 	decision_yes[3] 	8705
scalar abilene_network.node[3].content_store 	decision_no[3] 	0
scalar abilene_network.node[3].content_store 	decision_ratio[3] 	1
scalar abilene_network.node[4].core_layer 	interests[4] 	10474
scalar abilene_network.node[4].core_layer 	data[4] 	10401
scalar abilene_network.node[4].content_store 	p_hit[4] 	0.0068741645980523
scalar abilene_network.node[4].content_store 	hits[4] 	72
scalar abilene_network.node[4].content_store 	misses[4] 	10402
scalar abilene_network.node[4].content_store 	decision_yes[4] 	10401
scalar abilene_network.node[4].content_store 	decision_no[4] 	0
scalar abilene_network.node[4].content_store 	decision_ratio[4] 	1
scalar abilene_network.node[5].core_layer 	interests[5] 	19251
scalar abilene_network.node[5].core_layer 	repo_load[5] 	19006
scalar abilene_network.node[5].core_layer 	data[5] 	0
scalar abilene_network.node[5].content_store 	p_hit[5] 	0.012726611604592
scalar abilene_network.node[5].content_store 	hits[5] 	245
scalar abilene_network.node[5].content_store 	misses[5] 	19006
scalar abilene_network.node[5].content_store 	decision_yes[5] 	19006
scalar abilene_network.node[5].content_store 	decision_no[5] 	0
scalar abilene_network.node[5].content_store 	decision_ratio[5] 	1
scalar abilene_network.node[6].core_layer 	interests[6] 	7073
scalar abilene_network.node[6].core_layer 	data[6] 	7004
scalar abilene_network.node[6].content_store 	p_hit[6] 	0.0097554078891559
scalar abilene_network.node[6].content_store 	hits[6] 	69
scalar abilene_network.node[6].content_store 	misses[6] 	7004
scalar abilene_network.node[6].content_store 	decision_yes[6] 	7004
scalar abilene_network.node[6].content_store 	decision_no[6] 	0
scalar abilene_network.node[6].content_store 	decision_ratio[6] 	1
scalar abilene_network.node[7].core_layer 	interests[7] 	5324
scalar abilene_network.node[7].core_layer 	data[7] 	5259
scalar abilene_network.node[7].content_store 	p_hit[7] 	0.012021036814425
scalar abilene_network.node[7].content_store 	hits[7] 	64
scalar abilene_network.node[7].content_store 	misses[7] 	5260
scalar abilene_network.node[7].content_store 	decision_yes[7] 	5259
scalar abilene_network.node[7].content_store 	decision_no[7] 	0
scalar abilene_network.node[7].content_store 	decision_ratio[7] 	1
scalar abilene_network.node[8].core_layer 	interests[8] 	3558
scalar abilene_network.node[8].core_layer 	data[8] 	3511
scalar abilene_network.node[8].content_store 	p_hit[8] 	0.013209668353007
scalar abilene_network.node[8].content_store 	hits[8] 	47
scalar abilene_network.node[8].content_store 	misses[8] 	3511
scalar abilene_network.node[8].content_store 	decision_yes[8] 	3511
scalar abilene_network.node[8].content_store 	decision_no[8] 	0
scalar abilene_network.node[8].content_store 	decision_ratio[8] 	1
scalar abilene_network.node[9].core_layer 	interests[9] 	1889
scalar abilene_network.node[9].core_layer 	data[9] 	1848
scalar abilene_network.node[9].content_store 	p_hit[9] 	0.021704605611435
scalar abilene_network.node[9].content_store 	hits[9] 	41
scalar abilene_network.node[9].content_store 	misses[9] 	1848
scalar abilene_network.node[9].content_store 	decision_yes[9] 	1848
scalar abilene_network.node[9].content_store 	decision_no[9] 	0
scalar abilene_network.node[9].content_store 	decision_ratio[9] 	1
scalar abilene_network.node[10].core_layer 	interests[10] 	1806
scalar abilene_network.node[10].core_layer 	data[10] 	1764
scalar abilene_network.node[10].content_store 	p_hit[10] 	0.023255813953488
scalar abilene_network.node[10].content_store 	hits[10] 	42
scalar abilene_network.node[10].content_store 	misses[10] 	1764
scalar abilene_network.node[10].content_store 	decision_yes[10] 	1764
scalar abilene_network.node[10].content_store 	decision_no[10] 	0
scalar abilene_network.node[10].content_store 	decision_ratio[10] 	1
scalar abilene_network.client[0] 	hdistance[0] 	5.7961218836565
scalar abilene_network.client[0] 	downloads[0] 	1805
scalar abilene_network.client[0] 	avg_time[0] 	0.030294592345
scalar abilene_network.client[1] 	hdistance[1] 	4.8201320132013
scalar abilene_network.client[1] 	downloads[1] 	1818
scalar abilene_network.client[1] 	avg_time[1] 	0.019560890634
scalar abilene_network.client[2] 	hdistance[2] 	3.8613469156763
scalar abilene_network.client[2] 	downloads[2] 	1767
scalar abilene_network.client[2] 	avg_time[2] 	0.013811023891
scalar abilene_network.client[3] 	hdistance[3] 	2.9181318681319
scalar abilene_network.client[3] 	downloads[3] 	1820
scalar abilene_network.client[3] 	avg_time[3] 	0.009162724815
scalar abilene_network.client[4] 	hdistance[4] 	1.9468325791855
scalar abilene_network.client[4] 	downloads[4] 	1768
scalar abilene_network.client[4] 	avg_time[4] 	0.007462827609
scalar abilene_network.client[5] 	hdistance[5] 	0.97018970189702
scalar abilene_network.client[5] 	downloads[5] 	1845
scalar abilene_network.client[5] 	avg_time[5] 	0
scalar abilene_network.client[6] 	hdistance[6] 	1.9393605292172
scalar abilene_network.client[6] 	downloads[6] 	1814
scalar abilene_network.client[6] 	avg_time[6] 	0.002146636803
scalar abilene_network.client[7] 	hdistance[7] 	2.9205736348594
scalar abilene_network.client[7] 	downloads[7] 	1813
scalar abilene_network.client[7] 	avg_time[7] 	0.007862316147
scalar abilene_network.client[8] 	hdistance[8] 	3.8649122807018
scalar abilene_network.client[8] 	downloads[8] 	1710
scalar abilene_network.client[8] 	avg_time[8] 	0.015151777358
scalar abilene_network.client[9] 	hdistance[9] 	4.8221281101112
scalar abilene_network.client[9] 	downloads[9] 	1889
scalar abilene_network.client[9] 	avg_time[9] 	0.029454354826
scalar abilene_network.client[10] 	hdistance[10] 	5.7380952380952
scalar abilene_network.client[10] 	downloads[10] 	1806
scalar abilene_network.client[10] 	avg_time[10] 	0.029149180051
