version 2
run General-634-20140502-14:03:35-16558
attr D costprob0.005
attr F nrr
attr R lru
attr a 1
attr configname General
attr csize 1e3
attr ctlg 1e5
attr datetime 20140502-14:03:35
attr experiment General
attr inifile omnetpp.ini
attr iterationvars "$net=three_caches_scenario_3_links, $rep=5, $priceratiovalue=2, $weights=0.333_0.333_0.334, $a=1, $ctlg=1e5, $F=nrr, $ttl=1000, $D=costprob0.005, $xi=1, $R=lru, $csize=1e3"
attr iterationvars2 "$net=three_caches_scenario_3_links, $rep=5, $priceratiovalue=2, $weights=0.333_0.333_0.334, $a=1, $ctlg=1e5, $F=nrr, $ttl=1000, $D=costprob0.005, $xi=1, $R=lru, $csize=1e3, $repetition=0"
attr measurement "$net=three_caches_scenario_3_links, $rep=5, $priceratiovalue=2, $weights=0.333_0.333_0.334, $a=1, $ctlg=1e5, $F=nrr, $ttl=1000, $D=costprob0.005, $xi=1, $R=lru, $csize=1e3"
attr net three_caches_scenario_3_links
attr network networks.${net=three_caches_scenario_3_links}_network
attr priceratiovalue 2
attr processid 16558
attr rep 5
attr repetition 0
attr replication #0
attr resultdir results
attr runnumber 634
attr seedset 5
attr ttl 1000
attr weights 0.333_0.333_0.334
attr xi 1

scalar . 	a 	1
scalar . 	csize 	1e3
scalar . 	ctlg 	1e5
scalar . 	priceratiovalue 	2
scalar . 	rep 	5
scalar . 	ttl 	1000
scalar . 	xi 	1
scalar three_caches_scenario_3_links_network.content_distribution 	repo-0 	4
scalar three_caches_scenario_3_links_network.content_distribution 	repo-1 	5
scalar three_caches_scenario_3_links_network.content_distribution 	repo-2 	6
scalar three_caches_scenario_3_links_network.content_distribution 	client-0 	0
scalar three_caches_scenario_3_links_network.content_distribution 	repo-0_card 	33274
scalar three_caches_scenario_3_links_network.content_distribution 	repo-1_card 	33323
scalar three_caches_scenario_3_links_network.content_distribution 	repo-2_card 	33403
scalar three_caches_scenario_3_links_network.statistics 	p_hit 	0.11938849532567
scalar three_caches_scenario_3_links_network.statistics 	interests 	66365.571428571
scalar three_caches_scenario_3_links_network.statistics 	data 	40644.571428571
scalar three_caches_scenario_3_links_network.statistics 	hdistance 	1.8515609812993
scalar three_caches_scenario_3_links_network.statistics 	avg_time 	0
scalar three_caches_scenario_3_links_network.statistics 	downloads 	180047
scalar three_caches_scenario_3_links_network.statistics 	total_cost 	72276
scalar three_caches_scenario_3_links_network.statistics 	total_replicas 	100000
scalar three_caches_scenario_3_links_network.statistics 	interests_sent 	180047
scalar three_caches_scenario_3_links_network.node[0].core_layer 	interests[0] 	180047
scalar three_caches_scenario_3_links_network.node[0].core_layer 	data[0] 	159928
scalar three_caches_scenario_3_links_network.node[0].core_layer 	repo_int[0] 	124584
scalar three_caches_scenario_3_links_network.node[0].content_store 	p_hit[0] 	0.11174304487162
scalar three_caches_scenario_3_links_network.node[0].content_store 	hits[0] 	20119
scalar three_caches_scenario_3_links_network.node[0].content_store 	misses[0] 	159928
scalar three_caches_scenario_3_links_network.node[0].content_store 	decision_yes[0] 	365
scalar three_caches_scenario_3_links_network.node[0].content_store 	decision_no[0] 	159563
scalar three_caches_scenario_3_links_network.node[1].core_layer 	interests[1] 	75728
scalar three_caches_scenario_3_links_network.node[1].core_layer 	data[1] 	75728
scalar three_caches_scenario_3_links_network.node[1].content_store 	p_hit[1] 	0
scalar three_caches_scenario_3_links_network.node[1].content_store 	hits[1] 	0
scalar three_caches_scenario_3_links_network.node[1].content_store 	misses[1] 	75728
scalar three_caches_scenario_3_links_network.node[1].content_store 	decision_yes[1] 	0
scalar three_caches_scenario_3_links_network.node[1].content_store 	decision_no[1] 	75728
scalar three_caches_scenario_3_links_network.node[2].core_layer 	interests[2] 	41686
scalar three_caches_scenario_3_links_network.node[2].core_layer 	data[2] 	25436
scalar three_caches_scenario_3_links_network.node[2].content_store 	p_hit[2] 	0.3898191239265
scalar three_caches_scenario_3_links_network.node[2].content_store 	hits[2] 	16250
scalar three_caches_scenario_3_links_network.node[2].content_store 	misses[2] 	25436
scalar three_caches_scenario_3_links_network.node[2].content_store 	decision_yes[2] 	134
scalar three_caches_scenario_3_links_network.node[2].content_store 	decision_no[2] 	25302
scalar three_caches_scenario_3_links_network.node[3].core_layer 	interests[3] 	42514
scalar three_caches_scenario_3_links_network.node[3].core_layer 	data[3] 	23420
scalar three_caches_scenario_3_links_network.node[3].content_store 	p_hit[3] 	0.44912264195324
scalar three_caches_scenario_3_links_network.node[3].content_store 	hits[3] 	19094
scalar three_caches_scenario_3_links_network.node[3].content_store 	misses[3] 	23420
scalar three_caches_scenario_3_links_network.node[3].content_store 	decision_yes[3] 	222
scalar three_caches_scenario_3_links_network.node[3].content_store 	decision_no[3] 	23198
scalar three_caches_scenario_3_links_network.node[4].core_layer 	interests[4] 	75728
scalar three_caches_scenario_3_links_network.node[4].core_layer 	repo_load[4] 	75728
scalar three_caches_scenario_3_links_network.node[4].core_layer 	data[4] 	0
scalar three_caches_scenario_3_links_network.node[4].content_store 	p_hit[4] 	0
scalar three_caches_scenario_3_links_network.node[4].content_store 	hits[4] 	0
scalar three_caches_scenario_3_links_network.node[4].content_store 	misses[4] 	75728
scalar three_caches_scenario_3_links_network.node[4].content_store 	decision_yes[4] 	0
scalar three_caches_scenario_3_links_network.node[4].content_store 	decision_no[4] 	75728
scalar three_caches_scenario_3_links_network.node[5].core_layer 	interests[5] 	25436
scalar three_caches_scenario_3_links_network.node[5].core_layer 	repo_load[5] 	25436
scalar three_caches_scenario_3_links_network.node[5].core_layer 	data[5] 	0
scalar three_caches_scenario_3_links_network.node[5].content_store 	p_hit[5] 	0
scalar three_caches_scenario_3_links_network.node[5].content_store 	hits[5] 	0
scalar three_caches_scenario_3_links_network.node[5].content_store 	misses[5] 	25436
scalar three_caches_scenario_3_links_network.node[5].content_store 	decision_yes[5] 	0
scalar three_caches_scenario_3_links_network.node[5].content_store 	decision_no[5] 	25436
scalar three_caches_scenario_3_links_network.node[6].core_layer 	interests[6] 	23420
scalar three_caches_scenario_3_links_network.node[6].core_layer 	repo_load[6] 	23420
scalar three_caches_scenario_3_links_network.node[6].core_layer 	data[6] 	0
scalar three_caches_scenario_3_links_network.node[6].content_store 	p_hit[6] 	0
scalar three_caches_scenario_3_links_network.node[6].content_store 	hits[6] 	0
scalar three_caches_scenario_3_links_network.node[6].content_store 	misses[6] 	23420
scalar three_caches_scenario_3_links_network.node[6].content_store 	decision_yes[6] 	0
scalar three_caches_scenario_3_links_network.node[6].content_store 	decision_no[6] 	23420
scalar three_caches_scenario_3_links_network.client[0] 	hdistance[0] 	1.8515609812993
scalar three_caches_scenario_3_links_network.client[0] 	downloads[0] 	180047
scalar three_caches_scenario_3_links_network.client[0] 	avg_time[0] 	0
scalar three_caches_scenario_3_links_network.client[0] 	interests_sent[0] 	180047
