version 2
run General-346-20140502-12:19:27-15713
attr D costprob0.005
attr F nrr
attr R lru
attr a 1
attr configname General
attr csize 1e3
attr ctlg 1e5
attr datetime 20140502-12:19:27
attr experiment General
attr inifile omnetpp.ini
attr iterationvars "$net=three_caches_scenario_3_links, $rep=3, $priceratiovalue=2, $weights=0.333_0.333_0.334, $a=1, $ctlg=1e5, $F=nrr, $ttl=1000, $D=costprob0.005, $xi=1, $R=lru, $csize=1e3"
attr iterationvars2 "$net=three_caches_scenario_3_links, $rep=3, $priceratiovalue=2, $weights=0.333_0.333_0.334, $a=1, $ctlg=1e5, $F=nrr, $ttl=1000, $D=costprob0.005, $xi=1, $R=lru, $csize=1e3, $repetition=0"
attr measurement "$net=three_caches_scenario_3_links, $rep=3, $priceratiovalue=2, $weights=0.333_0.333_0.334, $a=1, $ctlg=1e5, $F=nrr, $ttl=1000, $D=costprob0.005, $xi=1, $R=lru, $csize=1e3"
attr net three_caches_scenario_3_links
attr network networks.${net=three_caches_scenario_3_links}_network
attr priceratiovalue 2
attr processid 15713
attr rep 3
attr repetition 0
attr replication #0
attr resultdir results
attr runnumber 346
attr seedset 3
attr ttl 1000
attr weights 0.333_0.333_0.334
attr xi 1

scalar . 	a 	1
scalar . 	csize 	1e3
scalar . 	ctlg 	1e5
scalar . 	priceratiovalue 	2
scalar . 	rep 	3
scalar . 	ttl 	1000
scalar . 	xi 	1
scalar three_caches_scenario_3_links_network.content_distribution 	repo-0 	4
scalar three_caches_scenario_3_links_network.content_distribution 	repo-1 	5
scalar three_caches_scenario_3_links_network.content_distribution 	repo-2 	6
scalar three_caches_scenario_3_links_network.content_distribution 	client-0 	0
scalar three_caches_scenario_3_links_network.content_distribution 	repo-0_card 	33329
scalar three_caches_scenario_3_links_network.content_distribution 	repo-1_card 	33051
scalar three_caches_scenario_3_links_network.content_distribution 	repo-2_card 	33620
scalar three_caches_scenario_3_links_network.statistics 	p_hit 	0.12856705254412
scalar three_caches_scenario_3_links_network.statistics 	interests 	64824.428571429
scalar three_caches_scenario_3_links_network.statistics 	data 	39057.285714286
scalar three_caches_scenario_3_links_network.statistics 	hdistance 	1.7860287187448
scalar three_caches_scenario_3_links_network.statistics 	avg_time 	0
scalar three_caches_scenario_3_links_network.statistics 	downloads 	180370
scalar three_caches_scenario_3_links_network.statistics 	total_cost 	71971
scalar three_caches_scenario_3_links_network.statistics 	total_replicas 	100000
scalar three_caches_scenario_3_links_network.statistics 	interests_sent 	180370
scalar three_caches_scenario_3_links_network.node[0].core_layer 	interests[0] 	180370
scalar three_caches_scenario_3_links_network.node[0].core_layer 	data[0] 	151371
scalar three_caches_scenario_3_links_network.node[0].core_layer 	repo_int[0] 	122030
scalar three_caches_scenario_3_links_network.node[0].content_store 	p_hit[0] 	0.16077507346011
scalar three_caches_scenario_3_links_network.node[0].content_store 	hits[0] 	28999
scalar three_caches_scenario_3_links_network.node[0].content_store 	misses[0] 	151371
scalar three_caches_scenario_3_links_network.node[0].content_store 	decision_yes[0] 	360
scalar three_caches_scenario_3_links_network.node[0].content_store 	decision_no[0] 	151011
scalar three_caches_scenario_3_links_network.node[1].core_layer 	interests[1] 	73285
scalar three_caches_scenario_3_links_network.node[1].core_layer 	data[1] 	73285
scalar three_caches_scenario_3_links_network.node[1].content_store 	p_hit[1] 	0
scalar three_caches_scenario_3_links_network.node[1].content_store 	hits[1] 	0
scalar three_caches_scenario_3_links_network.node[1].content_store 	misses[1] 	73285
scalar three_caches_scenario_3_links_network.node[1].content_store 	decision_yes[1] 	0
scalar three_caches_scenario_3_links_network.node[1].content_store 	decision_no[1] 	73285
scalar three_caches_scenario_3_links_network.node[2].core_layer 	interests[2] 	40958
scalar three_caches_scenario_3_links_network.node[2].core_layer 	data[2] 	25519
scalar three_caches_scenario_3_links_network.node[2].content_store 	p_hit[2] 	0.37694711655843
scalar three_caches_scenario_3_links_network.node[2].content_store 	hits[2] 	15439
scalar three_caches_scenario_3_links_network.node[2].content_store 	misses[2] 	25519
scalar three_caches_scenario_3_links_network.node[2].content_store 	decision_yes[2] 	109
scalar three_caches_scenario_3_links_network.node[2].content_store 	decision_no[2] 	25410
scalar three_caches_scenario_3_links_network.node[3].core_layer 	interests[3] 	37128
scalar three_caches_scenario_3_links_network.node[3].core_layer 	data[3] 	23226
scalar three_caches_scenario_3_links_network.node[3].content_store 	p_hit[3] 	0.37443438914027
scalar three_caches_scenario_3_links_network.node[3].content_store 	hits[3] 	13902
scalar three_caches_scenario_3_links_network.node[3].content_store 	misses[3] 	23226
scalar three_caches_scenario_3_links_network.node[3].content_store 	decision_yes[3] 	244
scalar three_caches_scenario_3_links_network.node[3].content_store 	decision_no[3] 	22982
scalar three_caches_scenario_3_links_network.node[4].core_layer 	interests[4] 	73285
scalar three_caches_scenario_3_links_network.node[4].core_layer 	repo_load[4] 	73285
scalar three_caches_scenario_3_links_network.node[4].core_layer 	data[4] 	0
scalar three_caches_scenario_3_links_network.node[4].content_store 	p_hit[4] 	0
scalar three_caches_scenario_3_links_network.node[4].content_store 	hits[4] 	0
scalar three_caches_scenario_3_links_network.node[4].content_store 	misses[4] 	73285
scalar three_caches_scenario_3_links_network.node[4].content_store 	decision_yes[4] 	0
scalar three_caches_scenario_3_links_network.node[4].content_store 	decision_no[4] 	73285
scalar three_caches_scenario_3_links_network.node[5].core_layer 	interests[5] 	25519
scalar three_caches_scenario_3_links_network.node[5].core_layer 	repo_load[5] 	25519
scalar three_caches_scenario_3_links_network.node[5].core_layer 	data[5] 	0
scalar three_caches_scenario_3_links_network.node[5].content_store 	p_hit[5] 	0
scalar three_caches_scenario_3_links_network.node[5].content_store 	hits[5] 	0
scalar three_caches_scenario_3_links_network.node[5].content_store 	misses[5] 	25519
scalar three_caches_scenario_3_links_network.node[5].content_store 	decision_yes[5] 	0
scalar three_caches_scenario_3_links_network.node[5].content_store 	decision_no[5] 	25519
scalar three_caches_scenario_3_links_network.node[6].core_layer 	interests[6] 	23226
scalar three_caches_scenario_3_links_network.node[6].core_layer 	repo_load[6] 	23226
scalar three_caches_scenario_3_links_network.node[6].core_layer 	data[6] 	0
scalar three_caches_scenario_3_links_network.node[6].content_store 	p_hit[6] 	0
scalar three_caches_scenario_3_links_network.node[6].content_store 	hits[6] 	0
scalar three_caches_scenario_3_links_network.node[6].content_store 	misses[6] 	23226
scalar three_caches_scenario_3_links_network.node[6].content_store 	decision_yes[6] 	0
scalar three_caches_scenario_3_links_network.node[6].content_store 	decision_no[6] 	23226
scalar three_caches_scenario_3_links_network.client[0] 	hdistance[0] 	1.7860287187448
scalar three_caches_scenario_3_links_network.client[0] 	downloads[0] 	180370
scalar three_caches_scenario_3_links_network.client[0] 	avg_time[0] 	0
scalar three_caches_scenario_3_links_network.client[0] 	interests_sent[0] 	180370
