version 2
run General-26-20140703-17:18:39-9846
attr D tailandrank
attr F spr
attr R lru
attr a 1
attr configname General
attr csize 1e3
attr ctlg 1e5
attr datetime 20140703-17:18:39
attr experiment General
attr inifile omnetpp.ini
attr iterationvars "$net=geant_cost, $rep=7, $priceratiovalue=10, $weights=0.333_0.333_0.334, $lambda=100, $a=1, $ctlg=1e5, $F=spr, $ttl=1000, $D=tailandrank, $xi=1, $R=lru, $csize=1e3, $pricebits=0, $window=60, $variance=0.05, $mytime=1800"
attr iterationvars2 "$net=geant_cost, $rep=7, $priceratiovalue=10, $weights=0.333_0.333_0.334, $lambda=100, $a=1, $ctlg=1e5, $F=spr, $ttl=1000, $D=tailandrank, $xi=1, $R=lru, $csize=1e3, $pricebits=0, $window=60, $variance=0.05, $mytime=1800, $repetition=0"
attr lambda 100
attr measurement "$net=geant_cost, $rep=7, $priceratiovalue=10, $weights=0.333_0.333_0.334, $lambda=100, $a=1, $ctlg=1e5, $F=spr, $ttl=1000, $D=tailandrank, $xi=1, $R=lru, $csize=1e3, $pricebits=0, $window=60, $variance=0.05, $mytime=1800"
attr mytime 1800
attr net geant_cost
attr network "networks.${net=geant_cost, abilene_cost}_network"
attr pricebits 0
attr priceratiovalue 10
attr processid 9846
attr rep 7
attr repetition 0
attr replication #0
attr resultdir results
attr runnumber 26
attr seedset 7
attr ttl 1000
attr variance 0.05
attr weights 0.333_0.333_0.334
attr window 60
attr xi 1

scalar . 	a 	1
scalar . 	csize 	1e3
scalar . 	ctlg 	1e5
scalar . 	lambda 	100
scalar . 	mytime 	1800
scalar . 	pricebits 	0
scalar . 	priceratiovalue 	10
scalar . 	rep 	7
scalar . 	ttl 	1000
scalar . 	variance 	0.05
scalar . 	window 	60
scalar . 	xi 	1
scalar geant_cost_network.content_distribution 	repo-0 	22
scalar geant_cost_network.content_distribution 	repo-1 	23
scalar geant_cost_network.content_distribution 	repo-2 	24
scalar geant_cost_network.content_distribution 	client-0 	20
scalar geant_cost_network.content_distribution 	client-1 	10
scalar geant_cost_network.content_distribution 	client-2 	12
scalar geant_cost_network.content_distribution 	client-3 	9
scalar geant_cost_network.content_distribution 	client-4 	5
scalar geant_cost_network.content_distribution 	repo-0_card 	33104
scalar geant_cost_network.content_distribution 	repo-1_card 	33508
scalar geant_cost_network.content_distribution 	repo-2_card 	33388
scalar geant_cost_network.statistics 	repo_popularity[0] 	0.34609068621501
scalar geant_cost_network.statistics 	repo_popularity[1] 	0.29388785961082
scalar geant_cost_network.statistics 	repo_popularity[2] 	0.36002145417417
scalar geant_cost_network.statistics 	stabilization_time 	36060
scalar geant_cost_network.node[7].face$o[4].channel 	price[7] 	0
scalar geant_cost_network.node[7].face$o[4].channel 	represented_price[7] 	0
scalar geant_cost_network.node[8].face$o[3].channel 	price[8] 	0
scalar geant_cost_network.node[8].face$o[3].channel 	represented_price[8] 	0
scalar geant_cost_network.node[21].face$o[5].channel 	price[21] 	0
scalar geant_cost_network.node[21].face$o[5].channel 	represented_price[21] 	0
scalar geant_cost_network.node[22].face$o[1].channel 	price[22] 	0
scalar geant_cost_network.node[22].face$o[1].channel 	represented_price[22] 	0
scalar geant_cost_network.node[23].face$o[1].channel 	price[23] 	1
scalar geant_cost_network.node[23].face$o[1].channel 	represented_price[23] 	1
scalar geant_cost_network.node[24].face$o[1].channel 	price[24] 	10
scalar geant_cost_network.node[24].face$o[1].channel 	represented_price[24] 	10
scalar geant_cost_network.statistics 	p_hit 	0.1193615852014
scalar geant_cost_network.statistics 	interests 	118350.64
scalar geant_cost_network.statistics 	data 	82320.64
scalar geant_cost_network.statistics 	hdistance 	2.8931258944091
scalar geant_cost_network.statistics 	avg_time 	0.004234526718
scalar geant_cost_network.statistics 	downloads 	900683
scalar geant_cost_network.statistics 	total_cost 	2037969
scalar geant_cost_network.statistics 	total_replicas 	100000
scalar geant_cost_network.statistics 	inner_hit 	0.39217127446616
scalar geant_cost_network.statistics 	interests_sent 	900751
scalar geant_cost_network.node[0].core_layer 	interests[0] 	0
scalar geant_cost_network.node[0].core_layer 	data[0] 	0
scalar geant_cost_network.node[0].core_layer 	repo_int[0] 	547461
scalar geant_cost_network.node[0].content_store 	p_hit[0] 	-nan
scalar geant_cost_network.node[0].content_store 	hits[0] 	0
scalar geant_cost_network.node[0].content_store 	misses[0] 	0
scalar geant_cost_network.node[0].content_store 	decision_yes[0] 	0
scalar geant_cost_network.node[0].content_store 	decision_no[0] 	0
scalar geant_cost_network.node[0].content_store 	decision_ratio[0] 	0
scalar geant_cost_network.node[1].core_layer 	interests[1] 	0
scalar geant_cost_network.node[1].core_layer 	data[1] 	0
scalar geant_cost_network.node[1].content_store 	p_hit[1] 	-nan
scalar geant_cost_network.node[1].content_store 	hits[1] 	0
scalar geant_cost_network.node[1].content_store 	misses[1] 	0
scalar geant_cost_network.node[1].content_store 	decision_yes[1] 	0
scalar geant_cost_network.node[1].content_store 	decision_no[1] 	0
scalar geant_cost_network.node[1].content_store 	decision_ratio[1] 	0
scalar geant_cost_network.node[2].core_layer 	interests[2] 	0
scalar geant_cost_network.node[2].core_layer 	data[2] 	0
scalar geant_cost_network.node[2].content_store 	p_hit[2] 	-nan
scalar geant_cost_network.node[2].content_store 	hits[2] 	0
scalar geant_cost_network.node[2].content_store 	misses[2] 	0
scalar geant_cost_network.node[2].content_store 	decision_yes[2] 	0
scalar geant_cost_network.node[2].content_store 	decision_no[2] 	0
scalar geant_cost_network.node[2].content_store 	decision_ratio[2] 	0
scalar geant_cost_network.node[3].core_layer 	interests[3] 	156119
scalar geant_cost_network.node[3].core_layer 	data[3] 	151759
scalar geant_cost_network.node[3].content_store 	p_hit[3] 	0.027927414344186
scalar geant_cost_network.node[3].content_store 	hits[3] 	4360
scalar geant_cost_network.node[3].content_store 	misses[3] 	151759
scalar geant_cost_network.node[3].content_store 	decision_yes[3] 	0
scalar geant_cost_network.node[3].content_store 	decision_no[3] 	151759
scalar geant_cost_network.node[3].content_store 	decision_ratio[3] 	0
scalar geant_cost_network.node[4].core_layer 	interests[4] 	224755
scalar geant_cost_network.node[4].core_layer 	data[4] 	224121
scalar geant_cost_network.node[4].content_store 	p_hit[4] 	0.0028119507908612
scalar geant_cost_network.node[4].content_store 	hits[4] 	632
scalar geant_cost_network.node[4].content_store 	misses[4] 	224123
scalar geant_cost_network.node[4].content_store 	decision_yes[4] 	0
scalar geant_cost_network.node[4].content_store 	decision_no[4] 	224121
scalar geant_cost_network.node[4].content_store 	decision_ratio[4] 	0
scalar geant_cost_network.node[5].core_layer 	interests[5] 	179604
scalar geant_cost_network.node[5].core_layer 	data[5] 	113923
scalar geant_cost_network.node[5].content_store 	p_hit[5] 	0.3655931939155
scalar geant_cost_network.node[5].content_store 	hits[5] 	65662
scalar geant_cost_network.node[5].content_store 	misses[5] 	113942
scalar geant_cost_network.node[5].content_store 	decision_yes[5] 	0
scalar geant_cost_network.node[5].content_store 	decision_no[5] 	113923
scalar geant_cost_network.node[5].content_store 	decision_ratio[5] 	0
scalar geant_cost_network.node[6].core_layer 	interests[6] 	74272
scalar geant_cost_network.node[6].core_layer 	data[6] 	72980
scalar geant_cost_network.node[6].content_store 	p_hit[6] 	0.01739551917277
scalar geant_cost_network.node[6].content_store 	hits[6] 	1292
scalar geant_cost_network.node[6].content_store 	misses[6] 	72980
scalar geant_cost_network.node[6].content_store 	decision_yes[6] 	0
scalar geant_cost_network.node[6].content_store 	decision_no[6] 	72980
scalar geant_cost_network.node[6].content_store 	decision_ratio[6] 	0
scalar geant_cost_network.node[7].core_layer 	interests[7] 	253866
scalar geant_cost_network.node[7].core_layer 	data[7] 	249909
scalar geant_cost_network.node[7].content_store 	p_hit[7] 	0.015575145943135
scalar geant_cost_network.node[7].content_store 	hits[7] 	3954
scalar geant_cost_network.node[7].content_store 	misses[7] 	249912
scalar geant_cost_network.node[7].content_store 	decision_yes[7] 	0
scalar geant_cost_network.node[7].content_store 	decision_no[7] 	249909
scalar geant_cost_network.node[7].content_store 	decision_ratio[7] 	0
scalar geant_cost_network.node[8].core_layer 	interests[8] 	262249
scalar geant_cost_network.node[8].core_layer 	data[8] 	259064
scalar geant_cost_network.node[8].content_store 	p_hit[8] 	0.012144946215238
scalar geant_cost_network.node[8].content_store 	hits[8] 	3185
scalar geant_cost_network.node[8].content_store 	misses[8] 	259064
scalar geant_cost_network.node[8].content_store 	decision_yes[8] 	0
scalar geant_cost_network.node[8].content_store 	decision_no[8] 	259064
scalar geant_cost_network.node[8].content_store 	decision_ratio[8] 	0
scalar geant_cost_network.node[9].core_layer 	interests[9] 	333570
scalar geant_cost_network.node[9].core_layer 	data[9] 	267345
scalar geant_cost_network.node[9].content_store 	p_hit[9] 	0.19842012171358
scalar geant_cost_network.node[9].content_store 	hits[9] 	66187
scalar geant_cost_network.node[9].content_store 	misses[9] 	267383
scalar geant_cost_network.node[9].content_store 	decision_yes[9] 	0
scalar geant_cost_network.node[9].content_store 	decision_no[9] 	267345
scalar geant_cost_network.node[9].content_store 	decision_ratio[9] 	0
scalar geant_cost_network.node[10].core_layer 	interests[10] 	180018
scalar geant_cost_network.node[10].core_layer 	data[10] 	114548
scalar geant_cost_network.node[10].content_store 	p_hit[10] 	0.36359697363597
scalar geant_cost_network.node[10].content_store 	hits[10] 	65454
scalar geant_cost_network.node[10].content_store 	misses[10] 	114564
scalar geant_cost_network.node[10].content_store 	decision_yes[10] 	0
scalar geant_cost_network.node[10].content_store 	decision_no[10] 	114548
scalar geant_cost_network.node[10].content_store 	decision_ratio[10] 	0
scalar geant_cost_network.node[11].core_layer 	interests[11] 	0
scalar geant_cost_network.node[11].core_layer 	data[11] 	0
scalar geant_cost_network.node[11].content_store 	p_hit[11] 	-nan
scalar geant_cost_network.node[11].content_store 	hits[11] 	0
scalar geant_cost_network.node[11].content_store 	misses[11] 	0
scalar geant_cost_network.node[11].content_store 	decision_yes[11] 	0
scalar geant_cost_network.node[11].content_store 	decision_no[11] 	0
scalar geant_cost_network.node[11].content_store 	decision_ratio[11] 	0
scalar geant_cost_network.node[12].core_layer 	interests[12] 	259971
scalar geant_cost_network.node[12].core_layer 	data[12] 	194391
scalar geant_cost_network.node[12].content_store 	p_hit[12] 	0.25211273565128
scalar geant_cost_network.node[12].content_store 	hits[12] 	65542
scalar geant_cost_network.node[12].content_store 	misses[12] 	194429
scalar geant_cost_network.node[12].content_store 	decision_yes[12] 	0
scalar geant_cost_network.node[12].content_store 	decision_no[12] 	194391
scalar geant_cost_network.node[12].content_store 	decision_ratio[12] 	0
scalar geant_cost_network.node[13].core_layer 	interests[13] 	0
scalar geant_cost_network.node[13].core_layer 	data[13] 	0
scalar geant_cost_network.node[13].content_store 	p_hit[13] 	-nan
scalar geant_cost_network.node[13].content_store 	hits[13] 	0
scalar geant_cost_network.node[13].content_store 	misses[13] 	0
scalar geant_cost_network.node[13].content_store 	decision_yes[13] 	0
scalar geant_cost_network.node[13].content_store 	decision_no[13] 	0
scalar geant_cost_network.node[13].content_store 	decision_ratio[13] 	0
scalar geant_cost_network.node[14].core_layer 	interests[14] 	39650
scalar geant_cost_network.node[14].core_layer 	data[14] 	37746
scalar geant_cost_network.node[14].content_store 	p_hit[14] 	0.048020176544767
scalar geant_cost_network.node[14].content_store 	hits[14] 	1904
scalar geant_cost_network.node[14].content_store 	misses[14] 	37746
scalar geant_cost_network.node[14].content_store 	decision_yes[14] 	0
scalar geant_cost_network.node[14].content_store 	decision_no[14] 	37746
scalar geant_cost_network.node[14].content_store 	decision_ratio[14] 	0
scalar geant_cost_network.node[15].core_layer 	interests[15] 	0
scalar geant_cost_network.node[15].core_layer 	data[15] 	0
scalar geant_cost_network.node[15].content_store 	p_hit[15] 	-nan
scalar geant_cost_network.node[15].content_store 	hits[15] 	0
scalar geant_cost_network.node[15].content_store 	misses[15] 	0
scalar geant_cost_network.node[15].content_store 	decision_yes[15] 	0
scalar geant_cost_network.node[15].content_store 	decision_no[15] 	0
scalar geant_cost_network.node[15].content_store 	decision_ratio[15] 	0
scalar geant_cost_network.node[16].core_layer 	interests[16] 	0
scalar geant_cost_network.node[16].core_layer 	data[16] 	0
scalar geant_cost_network.node[16].content_store 	p_hit[16] 	-nan
scalar geant_cost_network.node[16].content_store 	hits[16] 	0
scalar geant_cost_network.node[16].content_store 	misses[16] 	0
scalar geant_cost_network.node[16].content_store 	decision_yes[16] 	0
scalar geant_cost_network.node[16].content_store 	decision_no[16] 	0
scalar geant_cost_network.node[16].content_store 	decision_ratio[16] 	0
scalar geant_cost_network.node[17].core_layer 	interests[17] 	0
scalar geant_cost_network.node[17].core_layer 	data[17] 	0
scalar geant_cost_network.node[17].content_store 	p_hit[17] 	-nan
scalar geant_cost_network.node[17].content_store 	hits[17] 	0
scalar geant_cost_network.node[17].content_store 	misses[17] 	0
scalar geant_cost_network.node[17].content_store 	decision_yes[17] 	0
scalar geant_cost_network.node[17].content_store 	decision_no[17] 	0
scalar geant_cost_network.node[17].content_store 	decision_ratio[17] 	0
scalar geant_cost_network.node[18].core_layer 	interests[18] 	74273
scalar geant_cost_network.node[18].core_layer 	data[18] 	72996
scalar geant_cost_network.node[18].content_store 	p_hit[18] 	0.017193327319484
scalar geant_cost_network.node[18].content_store 	hits[18] 	1277
scalar geant_cost_network.node[18].content_store 	misses[18] 	72996
scalar geant_cost_network.node[18].content_store 	decision_yes[18] 	0
scalar geant_cost_network.node[18].content_store 	decision_no[18] 	72996
scalar geant_cost_network.node[18].content_store 	decision_ratio[18] 	0
scalar geant_cost_network.node[19].core_layer 	interests[19] 	0
scalar geant_cost_network.node[19].core_layer 	data[19] 	0
scalar geant_cost_network.node[19].content_store 	p_hit[19] 	-nan
scalar geant_cost_network.node[19].content_store 	hits[19] 	0
scalar geant_cost_network.node[19].content_store 	misses[19] 	0
scalar geant_cost_network.node[19].content_store 	decision_yes[19] 	0
scalar geant_cost_network.node[19].content_store 	decision_no[19] 	0
scalar geant_cost_network.node[19].content_store 	decision_ratio[19] 	0
scalar geant_cost_network.node[20].core_layer 	interests[20] 	180066
scalar geant_cost_network.node[20].core_layer 	data[20] 	114139
scalar geant_cost_network.node[20].content_store 	p_hit[20] 	0.36607132940144
scalar geant_cost_network.node[20].content_store 	hits[20] 	65917
scalar geant_cost_network.node[20].content_store 	misses[20] 	114149
scalar geant_cost_network.node[20].content_store 	decision_yes[20] 	0
scalar geant_cost_network.node[20].content_store 	decision_no[20] 	114139
scalar geant_cost_network.node[20].content_store 	decision_ratio[20] 	0
scalar geant_cost_network.node[21].core_layer 	interests[21] 	192892
scalar geant_cost_network.node[21].core_layer 	data[21] 	185095
scalar geant_cost_network.node[21].content_store 	p_hit[21] 	0.040421583062024
scalar geant_cost_network.node[21].content_store 	hits[21] 	7797
scalar geant_cost_network.node[21].content_store 	misses[21] 	185095
scalar geant_cost_network.node[21].content_store 	decision_yes[21] 	0
scalar geant_cost_network.node[21].content_store 	decision_no[21] 	185095
scalar geant_cost_network.node[21].content_store 	decision_ratio[21] 	0
scalar geant_cost_network.node[22].core_layer 	interests[22] 	175347
scalar geant_cost_network.node[22].core_layer 	repo_load[22] 	175347
scalar geant_cost_network.node[22].core_layer 	data[22] 	0
scalar geant_cost_network.node[22].content_store 	p_hit[22] 	0
scalar geant_cost_network.node[22].content_store 	hits[22] 	0
scalar geant_cost_network.node[22].content_store 	misses[22] 	175347
scalar geant_cost_network.node[22].content_store 	decision_yes[22] 	0
scalar geant_cost_network.node[22].content_store 	decision_no[22] 	175347
scalar geant_cost_network.node[22].content_store 	decision_ratio[22] 	0
scalar geant_cost_network.node[23].core_layer 	interests[23] 	187019
scalar geant_cost_network.node[23].core_layer 	repo_load[23] 	187019
scalar geant_cost_network.node[23].core_layer 	data[23] 	0
scalar geant_cost_network.node[23].content_store 	p_hit[23] 	0
scalar geant_cost_network.node[23].content_store 	hits[23] 	0
scalar geant_cost_network.node[23].content_store 	misses[23] 	187019
scalar geant_cost_network.node[23].content_store 	decision_yes[23] 	0
scalar geant_cost_network.node[23].content_store 	decision_no[23] 	187019
scalar geant_cost_network.node[23].content_store 	decision_ratio[23] 	0
scalar geant_cost_network.node[24].core_layer 	interests[24] 	185095
scalar geant_cost_network.node[24].core_layer 	repo_load[24] 	185095
scalar geant_cost_network.node[24].core_layer 	data[24] 	0
scalar geant_cost_network.node[24].content_store 	p_hit[24] 	0
scalar geant_cost_network.node[24].content_store 	hits[24] 	0
scalar geant_cost_network.node[24].content_store 	misses[24] 	185095
scalar geant_cost_network.node[24].content_store 	decision_yes[24] 	0
scalar geant_cost_network.node[24].content_store 	decision_no[24] 	185095
scalar geant_cost_network.node[24].content_store 	decision_ratio[24] 	0
scalar geant_cost_network.client[5] 	hdistance[5] 	2.6601108110366
scalar geant_cost_network.client[5] 	downloads[5] 	179585
scalar geant_cost_network.client[5] 	avg_time[5] 	0.006653141548
scalar geant_cost_network.client[5] 	interests_sent[5] 	179604
scalar geant_cost_network.client[9] 	hdistance[9] 	2.6956971578114
scalar geant_cost_network.client[9] 	downloads[9] 	180741
scalar geant_cost_network.client[9] 	avg_time[9] 	0.002747117395
scalar geant_cost_network.client[9] 	interests_sent[9] 	180750
scalar geant_cost_network.client[10] 	hdistance[10] 	3.3405351051655
scalar geant_cost_network.client[10] 	downloads[10] 	180002
scalar geant_cost_network.client[10] 	avg_time[10] 	0.004024270499
scalar geant_cost_network.client[10] 	interests_sent[10] 	180018
scalar geant_cost_network.client[12] 	hdistance[12] 	2.8986350451195
scalar geant_cost_network.client[12] 	downloads[12] 	180299
scalar geant_cost_network.client[12] 	avg_time[12] 	0.00322758573
scalar geant_cost_network.client[12] 	interests_sent[12] 	180313
scalar geant_cost_network.client[20] 	hdistance[20] 	2.8706513529125
scalar geant_cost_network.client[20] 	downloads[20] 	180056
scalar geant_cost_network.client[20] 	avg_time[20] 	0.00452051842
scalar geant_cost_network.client[20] 	interests_sent[20] 	180066
