version 2
run General-22-20140703-17:14:53-9823
attr D tailandrank
attr F spr
attr R lru
attr a 1
attr configname General
attr csize 1e3
attr ctlg 1e5
attr datetime 20140703-17:14:53
attr experiment General
attr inifile omnetpp.ini
attr iterationvars "$net=geant_cost, $rep=6, $priceratiovalue=10, $weights=0.333_0.333_0.334, $lambda=100, $a=1, $ctlg=1e5, $F=spr, $ttl=1000, $D=tailandrank, $xi=1, $R=lru, $csize=1e3, $pricebits=0, $window=60, $variance=0.05, $mytime=1800"
attr iterationvars2 "$net=geant_cost, $rep=6, $priceratiovalue=10, $weights=0.333_0.333_0.334, $lambda=100, $a=1, $ctlg=1e5, $F=spr, $ttl=1000, $D=tailandrank, $xi=1, $R=lru, $csize=1e3, $pricebits=0, $window=60, $variance=0.05, $mytime=1800, $repetition=0"
attr lambda 100
attr measurement "$net=geant_cost, $rep=6, $priceratiovalue=10, $weights=0.333_0.333_0.334, $lambda=100, $a=1, $ctlg=1e5, $F=spr, $ttl=1000, $D=tailandrank, $xi=1, $R=lru, $csize=1e3, $pricebits=0, $window=60, $variance=0.05, $mytime=1800"
attr mytime 1800
attr net geant_cost
attr network "networks.${net=geant_cost, abilene_cost}_network"
attr pricebits 0
attr priceratiovalue 10
attr processid 9823
attr rep 6
attr repetition 0
attr replication #0
attr resultdir results
attr runnumber 22
attr seedset 6
attr ttl 1000
attr variance 0.05
attr weights 0.333_0.333_0.334
attr window 60
attr xi 1

scalar . 	a 	1
scalar . 	csize 	1e3
scalar . 	ctlg 	1e5
scalar . 	lambda 	100
scalar . 	mytime 	1800
scalar . 	pricebits 	0
scalar . 	priceratiovalue 	10
scalar . 	rep 	6
scalar . 	ttl 	1000
scalar . 	variance 	0.05
scalar . 	window 	60
scalar . 	xi 	1
scalar geant_cost_network.content_distribution 	repo-0 	22
scalar geant_cost_network.content_distribution 	repo-1 	23
scalar geant_cost_network.content_distribution 	repo-2 	24
scalar geant_cost_network.content_distribution 	client-0 	20
scalar geant_cost_network.content_distribution 	client-1 	10
scalar geant_cost_network.content_distribution 	client-2 	12
scalar geant_cost_network.content_distribution 	client-3 	9
scalar geant_cost_network.content_distribution 	client-4 	5
scalar geant_cost_network.content_distribution 	repo-0_card 	33436
scalar geant_cost_network.content_distribution 	repo-1_card 	33143
scalar geant_cost_network.content_distribution 	repo-2_card 	33421
scalar geant_cost_network.statistics 	repo_popularity[0] 	0.39107817255936
scalar geant_cost_network.statistics 	repo_popularity[1] 	0.30968687902184
scalar geant_cost_network.statistics 	repo_popularity[2] 	0.2992349484188
scalar geant_cost_network.statistics 	stabilization_time 	36060
scalar geant_cost_network.node[7].face$o[4].channel 	price[7] 	0
scalar geant_cost_network.node[7].face$o[4].channel 	represented_price[7] 	0
scalar geant_cost_network.node[8].face$o[3].channel 	price[8] 	0
scalar geant_cost_network.node[8].face$o[3].channel 	represented_price[8] 	0
scalar geant_cost_network.node[21].face$o[5].channel 	price[21] 	0
scalar geant_cost_network.node[21].face$o[5].channel 	represented_price[21] 	0
scalar geant_cost_network.node[22].face$o[1].channel 	price[22] 	0
scalar geant_cost_network.node[22].face$o[1].channel 	represented_price[22] 	0
scalar geant_cost_network.node[23].face$o[1].channel 	price[23] 	1
scalar geant_cost_network.node[23].face$o[1].channel 	represented_price[23] 	1
scalar geant_cost_network.node[24].face$o[1].channel 	price[24] 	10
scalar geant_cost_network.node[24].face$o[1].channel 	represented_price[24] 	10
scalar geant_cost_network.statistics 	p_hit 	0.12372960167259
scalar geant_cost_network.statistics 	interests 	117852.8
scalar geant_cost_network.statistics 	data 	81798.64
scalar geant_cost_network.statistics 	hdistance 	2.8645107069822
scalar geant_cost_network.statistics 	avg_time 	0.004220758247
scalar geant_cost_network.statistics 	downloads 	901251
scalar geant_cost_network.statistics 	total_cost 	1893660
scalar geant_cost_network.statistics 	total_replicas 	100000
scalar geant_cost_network.statistics 	inner_hit 	0.40455211700181
scalar geant_cost_network.statistics 	interests_sent 	901354
scalar geant_cost_network.node[0].core_layer 	interests[0] 	0
scalar geant_cost_network.node[0].core_layer 	data[0] 	0
scalar geant_cost_network.node[0].core_layer 	repo_int[0] 	536648
scalar geant_cost_network.node[0].content_store 	p_hit[0] 	-nan
scalar geant_cost_network.node[0].content_store 	hits[0] 	0
scalar geant_cost_network.node[0].content_store 	misses[0] 	0
scalar geant_cost_network.node[0].content_store 	decision_yes[0] 	0
scalar geant_cost_network.node[0].content_store 	decision_no[0] 	0
scalar geant_cost_network.node[0].content_store 	decision_ratio[0] 	0
scalar geant_cost_network.node[1].core_layer 	interests[1] 	0
scalar geant_cost_network.node[1].core_layer 	data[1] 	0
scalar geant_cost_network.node[1].content_store 	p_hit[1] 	-nan
scalar geant_cost_network.node[1].content_store 	hits[1] 	0
scalar geant_cost_network.node[1].content_store 	misses[1] 	0
scalar geant_cost_network.node[1].content_store 	decision_yes[1] 	0
scalar geant_cost_network.node[1].content_store 	decision_no[1] 	0
scalar geant_cost_network.node[1].content_store 	decision_ratio[1] 	0
scalar geant_cost_network.node[2].core_layer 	interests[2] 	0
scalar geant_cost_network.node[2].core_layer 	data[2] 	0
scalar geant_cost_network.node[2].content_store 	p_hit[2] 	-nan
scalar geant_cost_network.node[2].content_store 	hits[2] 	0
scalar geant_cost_network.node[2].content_store 	misses[2] 	0
scalar geant_cost_network.node[2].content_store 	decision_yes[2] 	0
scalar geant_cost_network.node[2].content_store 	decision_no[2] 	0
scalar geant_cost_network.node[2].content_store 	decision_ratio[2] 	0
scalar geant_cost_network.node[3].core_layer 	interests[3] 	154407
scalar geant_cost_network.node[3].core_layer 	data[3] 	150625
scalar geant_cost_network.node[3].content_store 	p_hit[3] 	0.024493708186805
scalar geant_cost_network.node[3].content_store 	hits[3] 	3782
scalar geant_cost_network.node[3].content_store 	misses[3] 	150625
scalar geant_cost_network.node[3].content_store 	decision_yes[3] 	0
scalar geant_cost_network.node[3].content_store 	decision_no[3] 	150625
scalar geant_cost_network.node[3].content_store 	decision_ratio[3] 	0
scalar geant_cost_network.node[4].core_layer 	interests[4] 	224741
scalar geant_cost_network.node[4].core_layer 	data[4] 	223612
scalar geant_cost_network.node[4].content_store 	p_hit[4] 	0.005019110887644
scalar geant_cost_network.node[4].content_store 	hits[4] 	1128
scalar geant_cost_network.node[4].content_store 	misses[4] 	223613
scalar geant_cost_network.node[4].content_store 	decision_yes[4] 	0
scalar geant_cost_network.node[4].content_store 	decision_no[4] 	223612
scalar geant_cost_network.node[4].content_store 	decision_ratio[4] 	0
scalar geant_cost_network.node[5].core_layer 	interests[5] 	180385
scalar geant_cost_network.node[5].core_layer 	data[5] 	114135
scalar geant_cost_network.node[5].content_store 	p_hit[5] 	0.36710923857305
scalar geant_cost_network.node[5].content_store 	hits[5] 	66221
scalar geant_cost_network.node[5].content_store 	misses[5] 	114164
scalar geant_cost_network.node[5].content_store 	decision_yes[5] 	0
scalar geant_cost_network.node[5].content_store 	decision_no[5] 	114135
scalar geant_cost_network.node[5].content_store 	decision_ratio[5] 	0
scalar geant_cost_network.node[6].core_layer 	interests[6] 	75826
scalar geant_cost_network.node[6].core_layer 	data[6] 	74888
scalar geant_cost_network.node[6].content_store 	p_hit[6] 	0.012370427030306
scalar geant_cost_network.node[6].content_store 	hits[6] 	938
scalar geant_cost_network.node[6].content_store 	misses[6] 	74888
scalar geant_cost_network.node[6].content_store 	decision_yes[6] 	0
scalar geant_cost_network.node[6].content_store 	decision_no[6] 	74888
scalar geant_cost_network.node[6].content_store 	decision_ratio[6] 	0
scalar geant_cost_network.node[7].core_layer 	interests[7] 	261502
scalar geant_cost_network.node[7].core_layer 	data[7] 	255773
scalar geant_cost_network.node[7].content_store 	p_hit[7] 	0.021900406115441
scalar geant_cost_network.node[7].content_store 	hits[7] 	5727
scalar geant_cost_network.node[7].content_store 	misses[7] 	255775
scalar geant_cost_network.node[7].content_store 	decision_yes[7] 	0
scalar geant_cost_network.node[7].content_store 	decision_no[7] 	255773
scalar geant_cost_network.node[7].content_store 	decision_ratio[7] 	0
scalar geant_cost_network.node[8].core_layer 	interests[8] 	261832
scalar geant_cost_network.node[8].core_layer 	data[8] 	257976
scalar geant_cost_network.node[8].content_store 	p_hit[8] 	0.014727000519417
scalar geant_cost_network.node[8].content_store 	hits[8] 	3856
scalar geant_cost_network.node[8].content_store 	misses[8] 	257976
scalar geant_cost_network.node[8].content_store 	decision_yes[8] 	0
scalar geant_cost_network.node[8].content_store 	decision_no[8] 	257976
scalar geant_cost_network.node[8].content_store 	decision_ratio[8] 	0
scalar geant_cost_network.node[9].core_layer 	interests[9] 	331252
scalar geant_cost_network.node[9].core_layer 	data[9] 	265739
scalar geant_cost_network.node[9].content_store 	p_hit[9] 	0.19764107084636
scalar geant_cost_network.node[9].content_store 	hits[9] 	65469
scalar geant_cost_network.node[9].content_store 	misses[9] 	265783
scalar geant_cost_network.node[9].content_store 	decision_yes[9] 	0
scalar geant_cost_network.node[9].content_store 	decision_no[9] 	265739
scalar geant_cost_network.node[9].content_store 	decision_ratio[9] 	0
scalar geant_cost_network.node[10].core_layer 	interests[10] 	180511
scalar geant_cost_network.node[10].core_layer 	data[10] 	114356
scalar geant_cost_network.node[10].content_store 	p_hit[10] 	0.3663654846519
scalar geant_cost_network.node[10].content_store 	hits[10] 	66133
scalar geant_cost_network.node[10].content_store 	misses[10] 	114378
scalar geant_cost_network.node[10].content_store 	decision_yes[10] 	0
scalar geant_cost_network.node[10].content_store 	decision_no[10] 	114356
scalar geant_cost_network.node[10].content_store 	decision_ratio[10] 	0
scalar geant_cost_network.node[11].core_layer 	interests[11] 	0
scalar geant_cost_network.node[11].core_layer 	data[11] 	0
scalar geant_cost_network.node[11].content_store 	p_hit[11] 	-nan
scalar geant_cost_network.node[11].content_store 	hits[11] 	0
scalar geant_cost_network.node[11].content_store 	misses[11] 	0
scalar geant_cost_network.node[11].content_store 	decision_yes[11] 	0
scalar geant_cost_network.node[11].content_store 	decision_no[11] 	0
scalar geant_cost_network.node[11].content_store 	decision_ratio[11] 	0
scalar geant_cost_network.node[12].core_layer 	interests[12] 	257581
scalar geant_cost_network.node[12].core_layer 	data[12] 	191681
scalar geant_cost_network.node[12].content_store 	p_hit[12] 	0.25567103163665
scalar geant_cost_network.node[12].content_store 	hits[12] 	65856
scalar geant_cost_network.node[12].content_store 	misses[12] 	191725
scalar geant_cost_network.node[12].content_store 	decision_yes[12] 	0
scalar geant_cost_network.node[12].content_store 	decision_no[12] 	191681
scalar geant_cost_network.node[12].content_store 	decision_ratio[12] 	0
scalar geant_cost_network.node[13].core_layer 	interests[13] 	0
scalar geant_cost_network.node[13].core_layer 	data[13] 	0
scalar geant_cost_network.node[13].content_store 	p_hit[13] 	-nan
scalar geant_cost_network.node[13].content_store 	hits[13] 	0
scalar geant_cost_network.node[13].content_store 	misses[13] 	0
scalar geant_cost_network.node[13].content_store 	decision_yes[13] 	0
scalar geant_cost_network.node[13].content_store 	decision_no[13] 	0
scalar geant_cost_network.node[13].content_store 	decision_ratio[13] 	0
scalar geant_cost_network.node[14].core_layer 	interests[14] 	38309
scalar geant_cost_network.node[14].core_layer 	data[14] 	36525
scalar geant_cost_network.node[14].content_store 	p_hit[14] 	0.046568691430212
scalar geant_cost_network.node[14].content_store 	hits[14] 	1784
scalar geant_cost_network.node[14].content_store 	misses[14] 	36525
scalar geant_cost_network.node[14].content_store 	decision_yes[14] 	0
scalar geant_cost_network.node[14].content_store 	decision_no[14] 	36525
scalar geant_cost_network.node[14].content_store 	decision_ratio[14] 	0
scalar geant_cost_network.node[15].core_layer 	interests[15] 	0
scalar geant_cost_network.node[15].core_layer 	data[15] 	0
scalar geant_cost_network.node[15].content_store 	p_hit[15] 	-nan
scalar geant_cost_network.node[15].content_store 	hits[15] 	0
scalar geant_cost_network.node[15].content_store 	misses[15] 	0
scalar geant_cost_network.node[15].content_store 	decision_yes[15] 	0
scalar geant_cost_network.node[15].content_store 	decision_no[15] 	0
scalar geant_cost_network.node[15].content_store 	decision_ratio[15] 	0
scalar geant_cost_network.node[16].core_layer 	interests[16] 	0
scalar geant_cost_network.node[16].core_layer 	data[16] 	0
scalar geant_cost_network.node[16].content_store 	p_hit[16] 	-nan
scalar geant_cost_network.node[16].content_store 	hits[16] 	0
scalar geant_cost_network.node[16].content_store 	misses[16] 	0
scalar geant_cost_network.node[16].content_store 	decision_yes[16] 	0
scalar geant_cost_network.node[16].content_store 	decision_no[16] 	0
scalar geant_cost_network.node[16].content_store 	decision_ratio[16] 	0
scalar geant_cost_network.node[17].core_layer 	interests[17] 	0
scalar geant_cost_network.node[17].core_layer 	data[17] 	0
scalar geant_cost_network.node[17].content_store 	p_hit[17] 	-nan
scalar geant_cost_network.node[17].content_store 	hits[17] 	0
scalar geant_cost_network.node[17].content_store 	misses[17] 	0
scalar geant_cost_network.node[17].content_store 	decision_yes[17] 	0
scalar geant_cost_network.node[17].content_store 	decision_no[17] 	0
scalar geant_cost_network.node[17].content_store 	decision_ratio[17] 	0
scalar geant_cost_network.node[18].core_layer 	interests[18] 	75878
scalar geant_cost_network.node[18].core_layer 	data[18] 	74116
scalar geant_cost_network.node[18].content_store 	p_hit[18] 	0.023221487124068
scalar geant_cost_network.node[18].content_store 	hits[18] 	1762
scalar geant_cost_network.node[18].content_store 	misses[18] 	74116
scalar geant_cost_network.node[18].content_store 	decision_yes[18] 	0
scalar geant_cost_network.node[18].content_store 	decision_no[18] 	74116
scalar geant_cost_network.node[18].content_store 	decision_ratio[18] 	0
scalar geant_cost_network.node[19].core_layer 	interests[19] 	0
scalar geant_cost_network.node[19].core_layer 	data[19] 	0
scalar geant_cost_network.node[19].content_store 	p_hit[19] 	-nan
scalar geant_cost_network.node[19].content_store 	hits[19] 	0
scalar geant_cost_network.node[19].content_store 	misses[19] 	0
scalar geant_cost_network.node[19].content_store 	decision_yes[19] 	0
scalar geant_cost_network.node[19].content_store 	decision_no[19] 	0
scalar geant_cost_network.node[19].content_store 	decision_ratio[19] 	0
scalar geant_cost_network.node[20].core_layer 	interests[20] 	180200
scalar geant_cost_network.node[20].core_layer 	data[20] 	114457
scalar geant_cost_network.node[20].content_store 	p_hit[20] 	0.36473917869034
scalar geant_cost_network.node[20].content_store 	hits[20] 	65726
scalar geant_cost_network.node[20].content_store 	misses[20] 	114474
scalar geant_cost_network.node[20].content_store 	decision_yes[20] 	0
scalar geant_cost_network.node[20].content_store 	decision_no[20] 	114457
scalar geant_cost_network.node[20].content_store 	decision_ratio[20] 	0
scalar geant_cost_network.node[21].core_layer 	interests[21] 	187248
scalar geant_cost_network.node[21].core_layer 	data[21] 	171083
scalar geant_cost_network.node[21].content_store 	p_hit[21] 	0.086329359993164
scalar geant_cost_network.node[21].content_store 	hits[21] 	16165
scalar geant_cost_network.node[21].content_store 	misses[21] 	171083
scalar geant_cost_network.node[21].content_store 	decision_yes[21] 	0
scalar geant_cost_network.node[21].content_store 	decision_no[21] 	171083
scalar geant_cost_network.node[21].content_store 	decision_ratio[21] 	0
scalar geant_cost_network.node[22].core_layer 	interests[22] 	182735
scalar geant_cost_network.node[22].core_layer 	repo_load[22] 	182735
scalar geant_cost_network.node[22].core_layer 	data[22] 	0
scalar geant_cost_network.node[22].content_store 	p_hit[22] 	0
scalar geant_cost_network.node[22].content_store 	hits[22] 	0
scalar geant_cost_network.node[22].content_store 	misses[22] 	182735
scalar geant_cost_network.node[22].content_store 	decision_yes[22] 	0
scalar geant_cost_network.node[22].content_store 	decision_no[22] 	182735
scalar geant_cost_network.node[22].content_store 	decision_ratio[22] 	0
scalar geant_cost_network.node[23].core_layer 	interests[23] 	182830
scalar geant_cost_network.node[23].core_layer 	repo_load[23] 	182830
scalar geant_cost_network.node[23].core_layer 	data[23] 	0
scalar geant_cost_network.node[23].content_store 	p_hit[23] 	0
scalar geant_cost_network.node[23].content_store 	hits[23] 	0
scalar geant_cost_network.node[23].content_store 	misses[23] 	182830
scalar geant_cost_network.node[23].content_store 	decision_yes[23] 	0
scalar geant_cost_network.node[23].content_store 	decision_no[23] 	182830
scalar geant_cost_network.node[23].content_store 	decision_ratio[23] 	0
scalar geant_cost_network.node[24].core_layer 	interests[24] 	171083
scalar geant_cost_network.node[24].core_layer 	repo_load[24] 	171083
scalar geant_cost_network.node[24].core_layer 	data[24] 	0
scalar geant_cost_network.node[24].content_store 	p_hit[24] 	0
scalar geant_cost_network.node[24].content_store 	hits[24] 	0
scalar geant_cost_network.node[24].content_store 	misses[24] 	171083
scalar geant_cost_network.node[24].content_store 	decision_yes[24] 	0
scalar geant_cost_network.node[24].content_store 	decision_no[24] 	171083
scalar geant_cost_network.node[24].content_store 	decision_ratio[24] 	0
scalar geant_cost_network.client[5] 	hdistance[5] 	2.646920534942
scalar geant_cost_network.client[5] 	downloads[5] 	180356
scalar geant_cost_network.client[5] 	avg_time[5] 	0.006617352369
scalar geant_cost_network.client[5] 	interests_sent[5] 	180385
scalar geant_cost_network.client[9] 	hdistance[9] 	2.6669858856936
scalar geant_cost_network.client[9] 	downloads[9] 	179605
scalar geant_cost_network.client[9] 	avg_time[9] 	0.002717412428
scalar geant_cost_network.client[9] 	interests_sent[9] 	179622
scalar geant_cost_network.client[10] 	hdistance[10] 	3.2956025020916
scalar geant_cost_network.client[10] 	downloads[10] 	180489
scalar geant_cost_network.client[10] 	avg_time[10] 	0.00398890056
scalar geant_cost_network.client[10] 	interests_sent[10] 	180511
scalar geant_cost_network.client[12] 	hdistance[12] 	2.8677761906344
scalar geant_cost_network.client[12] 	downloads[12] 	180618
scalar geant_cost_network.client[12] 	avg_time[12] 	0.003225190461
scalar geant_cost_network.client[12] 	interests_sent[12] 	180636
scalar geant_cost_network.client[20] 	hdistance[20] 	2.8452684215492
scalar geant_cost_network.client[20] 	downloads[20] 	180183
scalar geant_cost_network.client[20] 	avg_time[20] 	0.004554935419
scalar geant_cost_network.client[20] 	interests_sent[20] 	180200
