version 2
run General-0-20150702-17:48:57-27890
attr D lce
attr F spr
attr R lru
attr a 1
attr brates 0.3
attr configname General
attr datetime 20150702-17:48:57
attr experiment General
attr inifile omnetpp.ini
attr iterationvars "$net=abilene, $rep=0, $lambda=1, $a=1, $brates=0.3, $F=spr, $ttl=1000, $D=lce, $R=lru, $window=60, $variance=0.05, $mytime=18000"
attr iterationvars2 "$net=abilene, $rep=0, $lambda=1, $a=1, $brates=0.3, $F=spr, $ttl=1000, $D=lce, $R=lru, $window=60, $variance=0.05, $mytime=18000, $repetition=0"
attr lambda 1
attr measurement "$net=abilene, $rep=0, $lambda=1, $a=1, $brates=0.3, $F=spr, $ttl=1000, $D=lce, $R=lru, $window=60, $variance=0.05, $mytime=18000"
attr mytime 18000
attr net abilene
attr network networks.${net=abilene}_network
attr processid 27890
attr rep 0
attr repetition 0
attr replication #0
attr resultdir results
attr runnumber 0
attr seedset 0
attr ttl 1000
attr variance 0.05
attr window 60

scalar . 	a 	1
scalar . 	brates 	0.3
scalar . 	lambda 	1
scalar . 	mytime 	18000
scalar . 	rep 	0
scalar . 	ttl 	1000
scalar . 	variance 	0.05
scalar . 	window 	60
scalar abilene_network.content_distribution 	repo-0 	5
scalar abilene_network.content_distribution 	client-0 	8
scalar abilene_network.content_distribution 	client-1 	9
scalar abilene_network.content_distribution 	client-2 	5
scalar abilene_network.content_distribution 	client-3 	0
scalar abilene_network.content_distribution 	client-4 	1
scalar abilene_network.content_distribution 	client-5 	7
scalar abilene_network.content_distribution 	client-6 	6
scalar abilene_network.content_distribution 	client-7 	2
scalar abilene_network.content_distribution 	client-8 	4
scalar abilene_network.content_distribution 	client-9 	10
scalar abilene_network.content_distribution 	client-10 	3
scalar abilene_network.content_distribution 	repo-0_card 	1
scalar abilene_network.content_distribution 	repo-0_price 	0
scalar abilene_network.statistics 	stabilization_time 	120.8
scalar abilene_network.statistics 	p_hit 	1
scalar abilene_network.statistics 	interests 	4959.7272727273
scalar abilene_network.statistics 	data 	0
scalar abilene_network.statistics 	hdistance 	0
scalar abilene_network.statistics 	avg_time 	0
scalar abilene_network.statistics 	downloads 	54556
scalar abilene_network.statistics 	total_cost 	0
scalar abilene_network.statistics 	total_replicas 	1
scalar abilene_network.statistics 	avg_utility 	0.00020162768487353
scalar abilene_network.statistics 	inner_hit 	1
scalar abilene_network.statistics 	interests_sent 	54557
scalar abilene_network.node[0].core_layer 	interests[0] 	5012
scalar abilene_network.node[0].core_layer 	data[0] 	0
scalar abilene_network.node[0].core_layer 	megabytes_sent[face$o[1]->client[0]] 	5012
scalar abilene_network.node[0].core_layer 	megabytes_sent[face$o[2]->node[1]] 	0
scalar abilene_network.node[0].core_layer 	megabytes_sent[face$o[3]->node[10]] 	0
scalar abilene_network.node[0].content_store 	p_hit[0] 	1
scalar abilene_network.node[0].content_store 	hits[0] 	5012
scalar abilene_network.node[0].content_store 	misses[0] 	0
scalar abilene_network.node[0].content_store 	decision_yes[0] 	0
scalar abilene_network.node[0].content_store 	decision_no[0] 	0
scalar abilene_network.node[0].content_store 	decision_ratio[0] 	0
scalar abilene_network.node[1].core_layer 	interests[1] 	5036
scalar abilene_network.node[1].core_layer 	data[1] 	0
scalar abilene_network.node[1].core_layer 	megabytes_sent[face$o[1]->client[1]] 	5036
scalar abilene_network.node[1].core_layer 	megabytes_sent[face$o[2]->node[0]] 	0
scalar abilene_network.node[1].core_layer 	megabytes_sent[face$o[3]->node[10]] 	0
scalar abilene_network.node[1].core_layer 	megabytes_sent[face$o[4]->node[2]] 	0
scalar abilene_network.node[1].content_store 	p_hit[1] 	1
scalar abilene_network.node[1].content_store 	hits[1] 	5036
scalar abilene_network.node[1].content_store 	misses[1] 	0
scalar abilene_network.node[1].content_store 	decision_yes[1] 	0
scalar abilene_network.node[1].content_store 	decision_no[1] 	0
scalar abilene_network.node[1].content_store 	decision_ratio[1] 	0
scalar abilene_network.node[2].core_layer 	interests[2] 	4937
scalar abilene_network.node[2].core_layer 	data[2] 	0
scalar abilene_network.node[2].core_layer 	megabytes_sent[face$o[1]->client[2]] 	4937
scalar abilene_network.node[2].core_layer 	megabytes_sent[face$o[2]->node[1]] 	0
scalar abilene_network.node[2].core_layer 	megabytes_sent[face$o[3]->node[3]] 	0
scalar abilene_network.node[2].core_layer 	megabytes_sent[face$o[4]->node[8]] 	0
scalar abilene_network.node[2].content_store 	p_hit[2] 	1
scalar abilene_network.node[2].content_store 	hits[2] 	4937
scalar abilene_network.node[2].content_store 	misses[2] 	0
scalar abilene_network.node[2].content_store 	decision_yes[2] 	0
scalar abilene_network.node[2].content_store 	decision_no[2] 	0
scalar abilene_network.node[2].content_store 	decision_ratio[2] 	0
scalar abilene_network.node[3].core_layer 	interests[3] 	5014
scalar abilene_network.node[3].core_layer 	data[3] 	0
scalar abilene_network.node[3].core_layer 	megabytes_sent[face$o[1]->client[3]] 	5014
scalar abilene_network.node[3].core_layer 	megabytes_sent[face$o[2]->node[2]] 	0
scalar abilene_network.node[3].core_layer 	megabytes_sent[face$o[3]->node[4]] 	0
scalar abilene_network.node[3].core_layer 	megabytes_sent[face$o[4]->node[7]] 	0
scalar abilene_network.node[3].content_store 	p_hit[3] 	1
scalar abilene_network.node[3].content_store 	hits[3] 	5014
scalar abilene_network.node[3].content_store 	misses[3] 	0
scalar abilene_network.node[3].content_store 	decision_yes[3] 	0
scalar abilene_network.node[3].content_store 	decision_no[3] 	0
scalar abilene_network.node[3].content_store 	decision_ratio[3] 	0
scalar abilene_network.node[4].core_layer 	interests[4] 	4968
scalar abilene_network.node[4].core_layer 	data[4] 	0
scalar abilene_network.node[4].core_layer 	megabytes_sent[face$o[1]->client[4]] 	4968
scalar abilene_network.node[4].core_layer 	megabytes_sent[face$o[2]->node[3]] 	0
scalar abilene_network.node[4].core_layer 	megabytes_sent[face$o[3]->node[5]] 	0
scalar abilene_network.node[4].content_store 	p_hit[4] 	1
scalar abilene_network.node[4].content_store 	hits[4] 	4968
scalar abilene_network.node[4].content_store 	misses[4] 	0
scalar abilene_network.node[4].content_store 	decision_yes[4] 	0
scalar abilene_network.node[4].content_store 	decision_no[4] 	0
scalar abilene_network.node[4].content_store 	decision_ratio[4] 	0
scalar abilene_network.node[5].core_layer 	interests[5] 	4925
scalar abilene_network.node[5].core_layer 	data[5] 	0
scalar abilene_network.node[5].core_layer 	megabytes_sent[face$o[1]->client[5]] 	4925
scalar abilene_network.node[5].core_layer 	megabytes_sent[face$o[2]->node[4]] 	0
scalar abilene_network.node[5].core_layer 	megabytes_sent[face$o[3]->node[6]] 	0
scalar abilene_network.node[5].content_store 	p_hit[5] 	1
scalar abilene_network.node[5].content_store 	hits[5] 	4925
scalar abilene_network.node[5].content_store 	misses[5] 	0
scalar abilene_network.node[5].content_store 	decision_yes[5] 	0
scalar abilene_network.node[5].content_store 	decision_no[5] 	0
scalar abilene_network.node[5].content_store 	decision_ratio[5] 	0
scalar abilene_network.node[6].core_layer 	interests[6] 	4957
scalar abilene_network.node[6].core_layer 	data[6] 	0
scalar abilene_network.node[6].core_layer 	megabytes_sent[face$o[1]->client[6]] 	4957
scalar abilene_network.node[6].core_layer 	megabytes_sent[face$o[2]->node[5]] 	0
scalar abilene_network.node[6].core_layer 	megabytes_sent[face$o[3]->node[7]] 	0
scalar abilene_network.node[6].content_store 	p_hit[6] 	1
scalar abilene_network.node[6].content_store 	hits[6] 	4957
scalar abilene_network.node[6].content_store 	misses[6] 	0
scalar abilene_network.node[6].content_store 	decision_yes[6] 	0
scalar abilene_network.node[6].content_store 	decision_no[6] 	0
scalar abilene_network.node[6].content_store 	decision_ratio[6] 	0
scalar abilene_network.node[7].core_layer 	interests[7] 	4934
scalar abilene_network.node[7].core_layer 	data[7] 	0
scalar abilene_network.node[7].core_layer 	megabytes_sent[face$o[1]->client[7]] 	4934
scalar abilene_network.node[7].core_layer 	megabytes_sent[face$o[2]->node[3]] 	0
scalar abilene_network.node[7].core_layer 	megabytes_sent[face$o[3]->node[6]] 	0
scalar abilene_network.node[7].core_layer 	megabytes_sent[face$o[4]->node[8]] 	0
scalar abilene_network.node[7].content_store 	p_hit[7] 	1
scalar abilene_network.node[7].content_store 	hits[7] 	4934
scalar abilene_network.node[7].content_store 	misses[7] 	0
scalar abilene_network.node[7].content_store 	decision_yes[7] 	0
scalar abilene_network.node[7].content_store 	decision_no[7] 	0
scalar abilene_network.node[7].content_store 	decision_ratio[7] 	0
scalar abilene_network.node[8].core_layer 	interests[8] 	4773
scalar abilene_network.node[8].core_layer 	data[8] 	0
scalar abilene_network.node[8].core_layer 	megabytes_sent[face$o[1]->client[8]] 	4773
scalar abilene_network.node[8].core_layer 	megabytes_sent[face$o[2]->node[2]] 	0
scalar abilene_network.node[8].core_layer 	megabytes_sent[face$o[3]->node[7]] 	0
scalar abilene_network.node[8].core_layer 	megabytes_sent[face$o[4]->node[9]] 	0
scalar abilene_network.node[8].content_store 	p_hit[8] 	1
scalar abilene_network.node[8].content_store 	hits[8] 	4773
scalar abilene_network.node[8].content_store 	misses[8] 	0
scalar abilene_network.node[8].content_store 	decision_yes[8] 	0
scalar abilene_network.node[8].content_store 	decision_no[8] 	0
scalar abilene_network.node[8].content_store 	decision_ratio[8] 	0
scalar abilene_network.node[9].core_layer 	interests[9] 	5105
scalar abilene_network.node[9].core_layer 	data[9] 	0
scalar abilene_network.node[9].core_layer 	megabytes_sent[face$o[1]->client[9]] 	5105
scalar abilene_network.node[9].core_layer 	megabytes_sent[face$o[2]->node[10]] 	0
scalar abilene_network.node[9].core_layer 	megabytes_sent[face$o[3]->node[8]] 	0
scalar abilene_network.node[9].content_store 	p_hit[9] 	1
scalar abilene_network.node[9].content_store 	hits[9] 	5105
scalar abilene_network.node[9].content_store 	misses[9] 	0
scalar abilene_network.node[9].content_store 	decision_yes[9] 	0
scalar abilene_network.node[9].content_store 	decision_no[9] 	0
scalar abilene_network.node[9].content_store 	decision_ratio[9] 	0
scalar abilene_network.node[10].core_layer 	interests[10] 	4896
scalar abilene_network.node[10].core_layer 	data[10] 	0
scalar abilene_network.node[10].core_layer 	megabytes_sent[face$o[1]->client[10]] 	4896
scalar abilene_network.node[10].core_layer 	megabytes_sent[face$o[2]->node[0]] 	0
scalar abilene_network.node[10].core_layer 	megabytes_sent[face$o[3]->node[1]] 	0
scalar abilene_network.node[10].core_layer 	megabytes_sent[face$o[4]->node[9]] 	0
scalar abilene_network.node[10].content_store 	p_hit[10] 	1
scalar abilene_network.node[10].content_store 	hits[10] 	4896
scalar abilene_network.node[10].content_store 	misses[10] 	0
scalar abilene_network.node[10].content_store 	decision_yes[10] 	0
scalar abilene_network.node[10].content_store 	decision_no[10] 	0
scalar abilene_network.node[10].content_store 	decision_ratio[10] 	0
scalar abilene_network.client[0] 	hdistance[0].real 	0
scalar abilene_network.client[0] 	downloads[0].real 	5012
scalar abilene_network.client[0] 	avg_time[0].real 	0
scalar abilene_network.client[0] 	interests_sent[0].real 	5012
scalar abilene_network.client[1] 	hdistance[1].real 	0
scalar abilene_network.client[1] 	downloads[1].real 	5036
scalar abilene_network.client[1] 	avg_time[1].real 	0
scalar abilene_network.client[1] 	interests_sent[1].real 	5036
scalar abilene_network.client[2] 	hdistance[2].real 	0
scalar abilene_network.client[2] 	downloads[2].real 	4937
scalar abilene_network.client[2] 	avg_time[2].real 	0
scalar abilene_network.client[2] 	interests_sent[2].real 	4937
scalar abilene_network.client[3] 	hdistance[3].real 	0
scalar abilene_network.client[3] 	downloads[3].real 	5014
scalar abilene_network.client[3] 	avg_time[3].real 	0
scalar abilene_network.client[3] 	interests_sent[3].real 	5014
scalar abilene_network.client[4] 	hdistance[4].real 	0
scalar abilene_network.client[4] 	downloads[4].real 	4968
scalar abilene_network.client[4] 	avg_time[4].real 	0
scalar abilene_network.client[4] 	interests_sent[4].real 	4968
scalar abilene_network.client[5] 	hdistance[5].real 	0
scalar abilene_network.client[5] 	downloads[5].real 	4925
scalar abilene_network.client[5] 	avg_time[5].real 	0
scalar abilene_network.client[5] 	interests_sent[5].real 	4925
scalar abilene_network.client[6] 	hdistance[6].real 	0
scalar abilene_network.client[6] 	downloads[6].real 	4956
scalar abilene_network.client[6] 	avg_time[6].real 	0
scalar abilene_network.client[6] 	interests_sent[6].real 	4957
scalar abilene_network.client[7] 	hdistance[7].real 	0
scalar abilene_network.client[7] 	downloads[7].real 	4934
scalar abilene_network.client[7] 	avg_time[7].real 	0
scalar abilene_network.client[7] 	interests_sent[7].real 	4934
scalar abilene_network.client[8] 	hdistance[8].real 	0
scalar abilene_network.client[8] 	downloads[8].real 	4773
scalar abilene_network.client[8] 	avg_time[8].real 	0
scalar abilene_network.client[8] 	interests_sent[8].real 	4773
scalar abilene_network.client[9] 	hdistance[9].real 	0
scalar abilene_network.client[9] 	downloads[9].real 	5105
scalar abilene_network.client[9] 	avg_time[9].real 	0
scalar abilene_network.client[9] 	interests_sent[9].real 	5105
scalar abilene_network.client[10] 	hdistance[10].real 	0
scalar abilene_network.client[10] 	downloads[10].real 	4896
scalar abilene_network.client[10] 	avg_time[10].real 	0
scalar abilene_network.client[10] 	interests_sent[10].real 	4896
