version 2
run General-1-20141030-18:25:08-22336
attr D costaware0.1
attr F nrr
attr R lru
attr a 1
attr configname General
attr csize 1e3
attr ctlg 1e5
attr datetime 20141030-18:25:08
attr experiment General
attr inifile omnetpp.ini
attr iterationvars "$rep=2, $lambda=100, $a=1, $ctlg=1e5, $F=nrr, $ttl=10, $D=costaware0.1, $R=lru, $csize=1e3, $window=60, $variance=0.05, $mytime=1800, $kappa=1, $priceratiovalue=10, $pricebits=0"
attr iterationvars2 "$rep=2, $lambda=100, $a=1, $ctlg=1e5, $F=nrr, $ttl=10, $D=costaware0.1, $R=lru, $csize=1e3, $window=60, $variance=0.05, $mytime=1800, $kappa=1, $priceratiovalue=10, $pricebits=0, $repetition=0"
attr kappa 1
attr lambda 100
attr measurement "$rep=2, $lambda=100, $a=1, $ctlg=1e5, $F=nrr, $ttl=10, $D=costaware0.1, $R=lru, $csize=1e3, $window=60, $variance=0.05, $mytime=1800, $kappa=1, $priceratiovalue=10, $pricebits=0"
attr mytime 1800
attr network networks.ws${rep}_network
attr pricebits 0
attr priceratiovalue 10
attr processid 22336
attr rep 2
attr repetition 0
attr replication #0
attr resultdir results
attr runnumber 1
attr seedset 2
attr ttl 10
attr variance 0.05
attr window 60

scalar . 	a 	1
scalar . 	csize 	1e3
scalar . 	ctlg 	1e5
scalar . 	kappa 	1
scalar . 	lambda 	100
scalar . 	mytime 	1800
scalar . 	pricebits 	0
scalar . 	priceratiovalue 	10
scalar . 	rep 	2
scalar . 	ttl 	10
scalar . 	variance 	0.05
scalar . 	window 	60
scalar ws2_network.content_distribution 	repo-0 	15
scalar ws2_network.content_distribution 	repo-1 	4
scalar ws2_network.content_distribution 	repo-2 	3
scalar ws2_network.content_distribution 	client-0 	7
scalar ws2_network.content_distribution 	client-1 	14
scalar ws2_network.content_distribution 	client-2 	8
scalar ws2_network.content_distribution 	repo-0_card 	33328
scalar ws2_network.content_distribution 	repo-0_price 	1
scalar ws2_network.content_distribution 	repo-1_card 	33051
scalar ws2_network.content_distribution 	repo-1_price 	10
scalar ws2_network.content_distribution 	repo-2_card 	33621
scalar ws2_network.content_distribution 	repo-2_price 	0
scalar ws2_network.statistics 	repo_popularity[0] 	0.40756645377989
scalar ws2_network.statistics 	repo_popularity[1] 	0.31264158041994
scalar ws2_network.statistics 	repo_popularity[2] 	0.27979196580019
scalar ws2_network.statistics 	p_hit 	0.12892908728248
scalar ws2_network.statistics 	interests 	5286.9090909091
scalar ws2_network.statistics 	data 	3295.8181818182
scalar ws2_network.statistics 	hdistance 	2.323245121933
scalar ws2_network.statistics 	avg_time 	0.008609534648
scalar ws2_network.statistics 	downloads 	43468
scalar ws2_network.statistics 	total_cost 	87905
scalar ws2_network.statistics 	total_replicas 	100000
scalar ws2_network.statistics 	inner_hit 	0.34535750437103
scalar ws2_network.statistics 	interests_sent 	43804
scalar ws2_network.node[0].core_layer 	interests[0] 	0
scalar ws2_network.node[0].core_layer 	data[0] 	0
scalar ws2_network.node[0].core_layer 	repo_int[0] 	28456
scalar ws2_network.node[0].content_store 	p_hit[0] 	-nan
scalar ws2_network.node[0].content_store 	hits[0] 	0
scalar ws2_network.node[0].content_store 	misses[0] 	0
scalar ws2_network.node[0].content_store 	decision_yes[0] 	0
scalar ws2_network.node[0].content_store 	decision_no[0] 	0
scalar ws2_network.node[0].content_store 	decision_ratio[0] 	0
scalar ws2_network.node[0].content_store 	correction_factor[0] 	0.027225701061802
scalar ws2_network.node[0].content_store 	kappa[0] 	1
scalar ws2_network.node[1].core_layer 	interests[1] 	12826
scalar ws2_network.node[1].core_layer 	data[1] 	12158
scalar ws2_network.node[1].content_store 	p_hit[1] 	0.051691875877125
scalar ws2_network.node[1].content_store 	hits[1] 	663
scalar ws2_network.node[1].content_store 	misses[1] 	12163
scalar ws2_network.node[1].content_store 	decision_yes[1] 	1473
scalar ws2_network.node[1].content_store 	decision_no[1] 	10685
scalar ws2_network.node[1].content_store 	decision_ratio[1] 	0.12115479519658
scalar ws2_network.node[1].content_store 	correction_factor[1] 	0.027225701061802
scalar ws2_network.node[1].content_store 	kappa[1] 	1
scalar ws2_network.node[2].core_layer 	interests[2] 	0
scalar ws2_network.node[2].core_layer 	data[2] 	0
scalar ws2_network.node[2].content_store 	p_hit[2] 	-nan
scalar ws2_network.node[2].content_store 	hits[2] 	0
scalar ws2_network.node[2].content_store 	misses[2] 	0
scalar ws2_network.node[2].content_store 	decision_yes[2] 	0
scalar ws2_network.node[2].content_store 	decision_no[2] 	0
scalar ws2_network.node[2].content_store 	decision_ratio[2] 	0
scalar ws2_network.node[2].content_store 	correction_factor[2] 	0.027225701061802
scalar ws2_network.node[2].content_store 	kappa[2] 	1
scalar ws2_network.node[3].core_layer 	interests[3] 	16497
scalar ws2_network.node[3].core_layer 	repo_load[3] 	12281
scalar ws2_network.node[3].core_layer 	data[3] 	3978
scalar ws2_network.node[3].content_store 	p_hit[3] 	0.014426865490695
scalar ws2_network.node[3].content_store 	hits[3] 	238
scalar ws2_network.node[3].content_store 	misses[3] 	16259
scalar ws2_network.node[3].content_store 	decision_yes[3] 	63
scalar ws2_network.node[3].content_store 	decision_no[3] 	16196
scalar ws2_network.node[3].content_store 	decision_ratio[3] 	0.0038747770465588
scalar ws2_network.node[3].content_store 	correction_factor[3] 	0.027225701061802
scalar ws2_network.node[3].content_store 	kappa[3] 	1
scalar ws2_network.node[4].core_layer 	interests[4] 	9156
scalar ws2_network.node[4].core_layer 	repo_load[4] 	7970
scalar ws2_network.node[4].core_layer 	data[4] 	0
scalar ws2_network.node[4].content_store 	p_hit[4] 	0.12953254696374
scalar ws2_network.node[4].content_store 	hits[4] 	1186
scalar ws2_network.node[4].content_store 	misses[4] 	7970
scalar ws2_network.node[4].content_store 	decision_yes[4] 	2180
scalar ws2_network.node[4].content_store 	decision_no[4] 	5790
scalar ws2_network.node[4].content_store 	decision_ratio[4] 	0.27352572145546
scalar ws2_network.node[4].content_store 	correction_factor[4] 	0.027225701061802
scalar ws2_network.node[4].content_store 	kappa[4] 	1
scalar ws2_network.node[5].core_layer 	interests[5] 	7934
scalar ws2_network.node[5].core_layer 	data[5] 	7923
scalar ws2_network.node[5].content_store 	p_hit[5] 	0
scalar ws2_network.node[5].content_store 	hits[5] 	0
scalar ws2_network.node[5].content_store 	misses[5] 	7934
scalar ws2_network.node[5].content_store 	decision_yes[5] 	0
scalar ws2_network.node[5].content_store 	decision_no[5] 	7923
scalar ws2_network.node[5].content_store 	decision_ratio[5] 	0
scalar ws2_network.node[5].content_store 	correction_factor[5] 	0.027225701061802
scalar ws2_network.node[5].content_store 	kappa[5] 	1
scalar ws2_network.node[6].core_layer 	interests[6] 	0
scalar ws2_network.node[6].core_layer 	data[6] 	0
scalar ws2_network.node[6].content_store 	p_hit[6] 	-nan
scalar ws2_network.node[6].content_store 	hits[6] 	0
scalar ws2_network.node[6].content_store 	misses[6] 	0
scalar ws2_network.node[6].content_store 	decision_yes[6] 	0
scalar ws2_network.node[6].content_store 	decision_no[6] 	0
scalar ws2_network.node[6].content_store 	decision_ratio[6] 	0
scalar ws2_network.node[6].content_store 	correction_factor[6] 	0.027225701061802
scalar ws2_network.node[6].content_store 	kappa[6] 	1
scalar ws2_network.node[7].core_layer 	interests[7] 	15388
scalar ws2_network.node[7].core_layer 	data[7] 	14412
scalar ws2_network.node[7].content_store 	p_hit[7] 	0.054003119313751
scalar ws2_network.node[7].content_store 	hits[7] 	831
scalar ws2_network.node[7].content_store 	misses[7] 	14557
scalar ws2_network.node[7].content_store 	decision_yes[7] 	771
scalar ws2_network.node[7].content_store 	decision_no[7] 	13641
scalar ws2_network.node[7].content_store 	decision_ratio[7] 	0.053497085761865
scalar ws2_network.node[7].content_store 	correction_factor[7] 	0.027225701061802
scalar ws2_network.node[7].content_store 	kappa[7] 	1
scalar ws2_network.node[8].core_layer 	interests[8] 	16384
scalar ws2_network.node[8].core_layer 	data[8] 	13643
scalar ws2_network.node[8].content_store 	p_hit[8] 	0.1591796875
scalar ws2_network.node[8].content_store 	hits[8] 	2608
scalar ws2_network.node[8].content_store 	misses[8] 	13776
scalar ws2_network.node[8].content_store 	decision_yes[8] 	842
scalar ws2_network.node[8].content_store 	decision_no[8] 	12801
scalar ws2_network.node[8].content_store 	decision_ratio[8] 	0.061716631239463
scalar ws2_network.node[8].content_store 	correction_factor[8] 	0.027225701061802
scalar ws2_network.node[8].content_store 	kappa[8] 	1
scalar ws2_network.node[9].core_layer 	interests[9] 	4420
scalar ws2_network.node[9].core_layer 	data[9] 	3504
scalar ws2_network.node[9].content_store 	p_hit[9] 	0.20723981900452
scalar ws2_network.node[9].content_store 	hits[9] 	916
scalar ws2_network.node[9].content_store 	misses[9] 	3504
scalar ws2_network.node[9].content_store 	decision_yes[9] 	70
scalar ws2_network.node[9].content_store 	decision_no[9] 	3434
scalar ws2_network.node[9].content_store 	decision_ratio[9] 	0.019977168949772
scalar ws2_network.node[9].content_store 	correction_factor[9] 	0.027225701061802
scalar ws2_network.node[9].content_store 	kappa[9] 	1
scalar ws2_network.node[10].core_layer 	interests[10] 	0
scalar ws2_network.node[10].core_layer 	data[10] 	0
scalar ws2_network.node[10].content_store 	p_hit[10] 	-nan
scalar ws2_network.node[10].content_store 	hits[10] 	0
scalar ws2_network.node[10].content_store 	misses[10] 	0
scalar ws2_network.node[10].content_store 	decision_yes[10] 	0
scalar ws2_network.node[10].content_store 	decision_no[10] 	0
scalar ws2_network.node[10].content_store 	decision_ratio[10] 	0
scalar ws2_network.node[10].content_store 	correction_factor[10] 	0.027225701061802
scalar ws2_network.node[10].content_store 	kappa[10] 	1
scalar ws2_network.node[11].core_layer 	interests[11] 	0
scalar ws2_network.node[11].core_layer 	data[11] 	0
scalar ws2_network.node[11].content_store 	p_hit[11] 	-nan
scalar ws2_network.node[11].content_store 	hits[11] 	0
scalar ws2_network.node[11].content_store 	misses[11] 	0
scalar ws2_network.node[11].content_store 	decision_yes[11] 	0
scalar ws2_network.node[11].content_store 	decision_no[11] 	0
scalar ws2_network.node[11].content_store 	decision_ratio[11] 	0
scalar ws2_network.node[11].content_store 	correction_factor[11] 	0.027225701061802
scalar ws2_network.node[11].content_store 	kappa[11] 	1
scalar ws2_network.node[12].core_layer 	interests[12] 	0
scalar ws2_network.node[12].core_layer 	data[12] 	0
scalar ws2_network.node[12].content_store 	p_hit[12] 	-nan
scalar ws2_network.node[12].content_store 	hits[12] 	0
scalar ws2_network.node[12].content_store 	misses[12] 	0
scalar ws2_network.node[12].content_store 	decision_yes[12] 	0
scalar ws2_network.node[12].content_store 	decision_no[12] 	0
scalar ws2_network.node[12].content_store 	decision_ratio[12] 	0
scalar ws2_network.node[12].content_store 	correction_factor[12] 	0.027225701061802
scalar ws2_network.node[12].content_store 	kappa[12] 	1
scalar ws2_network.node[13].core_layer 	interests[13] 	0
scalar ws2_network.node[13].core_layer 	data[13] 	0
scalar ws2_network.node[13].content_store 	p_hit[13] 	-nan
scalar ws2_network.node[13].content_store 	hits[13] 	0
scalar ws2_network.node[13].content_store 	misses[13] 	0
scalar ws2_network.node[13].content_store 	decision_yes[13] 	0
scalar ws2_network.node[13].content_store 	decision_no[13] 	0
scalar ws2_network.node[13].content_store 	decision_ratio[13] 	0
scalar ws2_network.node[13].content_store 	correction_factor[13] 	0.027225701061802
scalar ws2_network.node[13].content_store 	kappa[13] 	1
scalar ws2_network.node[14].core_layer 	interests[14] 	17770
scalar ws2_network.node[14].core_layer 	data[14] 	12818
scalar ws2_network.node[14].content_store 	p_hit[14] 	0.27540799099606
scalar ws2_network.node[14].content_store 	hits[14] 	4894
scalar ws2_network.node[14].content_store 	misses[14] 	12876
scalar ws2_network.node[14].content_store 	decision_yes[14] 	798
scalar ws2_network.node[14].content_store 	decision_no[14] 	12020
scalar ws2_network.node[14].content_store 	decision_ratio[14] 	0.062256202215634
scalar ws2_network.node[14].content_store 	correction_factor[14] 	0.027225701061802
scalar ws2_network.node[14].content_store 	kappa[14] 	1
scalar ws2_network.node[15].core_layer 	interests[15] 	11554
scalar ws2_network.node[15].core_layer 	repo_load[15] 	8205
scalar ws2_network.node[15].core_layer 	data[15] 	0
scalar ws2_network.node[15].content_store 	p_hit[15] 	0.28985632681322
scalar ws2_network.node[15].content_store 	hits[15] 	3349
scalar ws2_network.node[15].content_store 	misses[15] 	8205
scalar ws2_network.node[15].content_store 	decision_yes[15] 	224
scalar ws2_network.node[15].content_store 	decision_no[15] 	7981
scalar ws2_network.node[15].content_store 	decision_ratio[15] 	0.027300426569165
scalar ws2_network.node[15].content_store 	correction_factor[15] 	0.027225701061802
scalar ws2_network.node[15].content_store 	kappa[15] 	1
scalar ws2_network.node[16].core_layer 	interests[16] 	4383
scalar ws2_network.node[16].core_layer 	data[16] 	4072
scalar ws2_network.node[16].content_store 	p_hit[16] 	0.070955966233174
scalar ws2_network.node[16].content_store 	hits[16] 	311
scalar ws2_network.node[16].content_store 	misses[16] 	4072
scalar ws2_network.node[16].content_store 	decision_yes[16] 	59
scalar ws2_network.node[16].content_store 	decision_no[16] 	4013
scalar ws2_network.node[16].content_store 	decision_ratio[16] 	0.014489194499018
scalar ws2_network.node[16].content_store 	correction_factor[16] 	0.027225701061802
scalar ws2_network.node[16].content_store 	kappa[16] 	1
scalar ws2_network.node[17].core_layer 	interests[17] 	0
scalar ws2_network.node[17].core_layer 	data[17] 	0
scalar ws2_network.node[17].content_store 	p_hit[17] 	-nan
scalar ws2_network.node[17].content_store 	hits[17] 	0
scalar ws2_network.node[17].content_store 	misses[17] 	0
scalar ws2_network.node[17].content_store 	decision_yes[17] 	0
scalar ws2_network.node[17].content_store 	decision_no[17] 	0
scalar ws2_network.node[17].content_store 	decision_ratio[17] 	0
scalar ws2_network.node[17].content_store 	correction_factor[17] 	0.027225701061802
scalar ws2_network.node[17].content_store 	kappa[17] 	1
scalar ws2_network.node[18].core_layer 	interests[18] 	0
scalar ws2_network.node[18].core_layer 	data[18] 	0
scalar ws2_network.node[18].content_store 	p_hit[18] 	-nan
scalar ws2_network.node[18].content_store 	hits[18] 	0
scalar ws2_network.node[18].content_store 	misses[18] 	0
scalar ws2_network.node[18].content_store 	decision_yes[18] 	0
scalar ws2_network.node[18].content_store 	decision_no[18] 	0
scalar ws2_network.node[18].content_store 	decision_ratio[18] 	0
scalar ws2_network.node[18].content_store 	correction_factor[18] 	0.027225701061802
scalar ws2_network.node[18].content_store 	kappa[18] 	1
scalar ws2_network.node[19].core_layer 	interests[19] 	0
scalar ws2_network.node[19].core_layer 	data[19] 	0
scalar ws2_network.node[19].content_store 	p_hit[19] 	-nan
scalar ws2_network.node[19].content_store 	hits[19] 	0
scalar ws2_network.node[19].content_store 	misses[19] 	0
scalar ws2_network.node[19].content_store 	decision_yes[19] 	0
scalar ws2_network.node[19].content_store 	decision_no[19] 	0
scalar ws2_network.node[19].content_store 	decision_ratio[19] 	0
scalar ws2_network.node[19].content_store 	correction_factor[19] 	0.027225701061802
scalar ws2_network.node[19].content_store 	kappa[19] 	1
scalar ws2_network.node[20].core_layer 	interests[20] 	0
scalar ws2_network.node[20].core_layer 	data[20] 	0
scalar ws2_network.node[20].content_store 	p_hit[20] 	-nan
scalar ws2_network.node[20].content_store 	hits[20] 	0
scalar ws2_network.node[20].content_store 	misses[20] 	0
scalar ws2_network.node[20].content_store 	decision_yes[20] 	0
scalar ws2_network.node[20].content_store 	decision_no[20] 	0
scalar ws2_network.node[20].content_store 	decision_ratio[20] 	0
scalar ws2_network.node[20].content_store 	correction_factor[20] 	0.027225701061802
scalar ws2_network.node[20].content_store 	kappa[20] 	1
scalar ws2_network.node[21].core_layer 	interests[21] 	0
scalar ws2_network.node[21].core_layer 	data[21] 	0
scalar ws2_network.node[21].content_store 	p_hit[21] 	-nan
scalar ws2_network.node[21].content_store 	hits[21] 	0
scalar ws2_network.node[21].content_store 	misses[21] 	0
scalar ws2_network.node[21].content_store 	decision_yes[21] 	0
scalar ws2_network.node[21].content_store 	decision_no[21] 	0
scalar ws2_network.node[21].content_store 	decision_ratio[21] 	0
scalar ws2_network.node[21].content_store 	correction_factor[21] 	0.027225701061802
scalar ws2_network.node[21].content_store 	kappa[21] 	1
scalar ws2_network.client[7] 	hdistance[7] 	2.5898372862659
scalar ws2_network.client[7] 	downloads[7] 	14504
scalar ws2_network.client[7] 	avg_time[7] 	0.009977612882
scalar ws2_network.client[7] 	interests_sent[7] 	14649
scalar ws2_network.client[8] 	hdistance[8] 	2.2682452607458
scalar ws2_network.client[8] 	downloads[8] 	14401
scalar ws2_network.client[8] 	avg_time[8] 	0.008267791593
scalar ws2_network.client[8] 	interests_sent[8] 	14534
scalar ws2_network.client[14] 	hdistance[14] 	2.1116528187873
scalar ws2_network.client[14] 	downloads[14] 	14563
scalar ws2_network.client[14] 	avg_time[14] 	0.00758319947
scalar ws2_network.client[14] 	interests_sent[14] 	14621
