version 2
run General-0-20141030-18:25:08-22335
attr D costaware0.1
attr F nrr
attr R lru
attr a 1
attr configname General
attr csize 1e3
attr ctlg 1e5
attr datetime 20141030-18:25:08
attr experiment General
attr inifile omnetpp.ini
attr iterationvars "$rep=1, $lambda=100, $a=1, $ctlg=1e5, $F=nrr, $ttl=10, $D=costaware0.1, $R=lru, $csize=1e3, $window=60, $variance=0.05, $mytime=1800, $kappa=1, $priceratiovalue=10, $pricebits=0"
attr iterationvars2 "$rep=1, $lambda=100, $a=1, $ctlg=1e5, $F=nrr, $ttl=10, $D=costaware0.1, $R=lru, $csize=1e3, $window=60, $variance=0.05, $mytime=1800, $kappa=1, $priceratiovalue=10, $pricebits=0, $repetition=0"
attr kappa 1
attr lambda 100
attr measurement "$rep=1, $lambda=100, $a=1, $ctlg=1e5, $F=nrr, $ttl=10, $D=costaware0.1, $R=lru, $csize=1e3, $window=60, $variance=0.05, $mytime=1800, $kappa=1, $priceratiovalue=10, $pricebits=0"
attr mytime 1800
attr network networks.ws${rep}_network
attr pricebits 0
attr priceratiovalue 10
attr processid 22335
attr rep 1
attr repetition 0
attr replication #0
attr resultdir results
attr runnumber 0
attr seedset 1
attr ttl 10
attr variance 0.05
attr window 60

scalar . 	a 	1
scalar . 	csize 	1e3
scalar . 	ctlg 	1e5
scalar . 	kappa 	1
scalar . 	lambda 	100
scalar . 	mytime 	1800
scalar . 	pricebits 	0
scalar . 	priceratiovalue 	10
scalar . 	rep 	1
scalar . 	ttl 	10
scalar . 	variance 	0.05
scalar . 	window 	60
scalar ws1_network.content_distribution 	repo-0 	14
scalar ws1_network.content_distribution 	repo-1 	5
scalar ws1_network.content_distribution 	repo-2 	1
scalar ws1_network.content_distribution 	client-0 	8
scalar ws1_network.content_distribution 	client-1 	18
scalar ws1_network.content_distribution 	client-2 	9
scalar ws1_network.content_distribution 	repo-0_card 	33398
scalar ws1_network.content_distribution 	repo-0_price 	0
scalar ws1_network.content_distribution 	repo-1_card 	33040
scalar ws1_network.content_distribution 	repo-1_price 	1
scalar ws1_network.content_distribution 	repo-2_card 	33562
scalar ws1_network.content_distribution 	repo-2_price 	10
scalar ws1_network.statistics 	repo_popularity[0] 	0.42710281340035
scalar ws1_network.statistics 	repo_popularity[1] 	0.27050451919503
scalar ws1_network.statistics 	repo_popularity[2] 	0.30239266740463
scalar ws1_network.statistics 	p_hit 	0.061542734035749
scalar ws1_network.statistics 	interests 	5401.2727272727
scalar ws1_network.statistics 	data 	3722.4090909091
scalar ws1_network.statistics 	hdistance 	3.0514608749021
scalar ws1_network.statistics 	avg_time 	0.011590649115
scalar ws1_network.statistics 	downloads 	36377
scalar ws1_network.statistics 	total_cost 	73749
scalar ws1_network.statistics 	total_replicas 	100000
scalar ws1_network.statistics 	inner_hit 	0.20411248866042
scalar ws1_network.statistics 	interests_sent 	36932
scalar ws1_network.node[0].core_layer 	interests[0] 	250
scalar ws1_network.node[0].core_layer 	data[0] 	250
scalar ws1_network.node[0].core_layer 	repo_int[0] 	28952
scalar ws1_network.node[0].content_store 	p_hit[0] 	0
scalar ws1_network.node[0].content_store 	hits[0] 	0
scalar ws1_network.node[0].content_store 	misses[0] 	250
scalar ws1_network.node[0].content_store 	decision_yes[0] 	0
scalar ws1_network.node[0].content_store 	decision_no[0] 	250
scalar ws1_network.node[0].content_store 	decision_ratio[0] 	0
scalar ws1_network.node[0].content_store 	correction_factor[0] 	0.027225701061802
scalar ws1_network.node[0].content_store 	kappa[0] 	1
scalar ws1_network.node[1].core_layer 	interests[1] 	7412
scalar ws1_network.node[1].core_layer 	repo_load[1] 	6671
scalar ws1_network.node[1].core_layer 	data[1] 	0
scalar ws1_network.node[1].content_store 	p_hit[1] 	0.099973016729628
scalar ws1_network.node[1].content_store 	hits[1] 	741
scalar ws1_network.node[1].content_store 	misses[1] 	6671
scalar ws1_network.node[1].content_store 	decision_yes[1] 	1750
scalar ws1_network.node[1].content_store 	decision_no[1] 	4921
scalar ws1_network.node[1].content_store 	decision_ratio[1] 	0.26232948583421
scalar ws1_network.node[1].content_store 	correction_factor[1] 	0.027225701061802
scalar ws1_network.node[1].content_store 	kappa[1] 	1
scalar ws1_network.node[2].core_layer 	interests[2] 	2532
scalar ws1_network.node[2].core_layer 	data[2] 	2255
scalar ws1_network.node[2].content_store 	p_hit[2] 	0.10900473933649
scalar ws1_network.node[2].content_store 	hits[2] 	276
scalar ws1_network.node[2].content_store 	misses[2] 	2256
scalar ws1_network.node[2].content_store 	decision_yes[2] 	578
scalar ws1_network.node[2].content_store 	decision_no[2] 	1677
scalar ws1_network.node[2].content_store 	decision_ratio[2] 	0.25631929046563
scalar ws1_network.node[2].content_store 	correction_factor[2] 	0.027225701061802
scalar ws1_network.node[2].content_store 	kappa[2] 	1
scalar ws1_network.node[3].core_layer 	interests[3] 	3680
scalar ws1_network.node[3].core_layer 	data[3] 	3494
scalar ws1_network.node[3].content_store 	p_hit[3] 	0.05054347826087
scalar ws1_network.node[3].content_store 	hits[3] 	186
scalar ws1_network.node[3].content_store 	misses[3] 	3494
scalar ws1_network.node[3].content_store 	decision_yes[3] 	581
scalar ws1_network.node[3].content_store 	decision_no[3] 	2912
scalar ws1_network.node[3].content_store 	decision_ratio[3] 	0.16633266533066
scalar ws1_network.node[3].content_store 	correction_factor[3] 	0.027225701061802
scalar ws1_network.node[3].content_store 	kappa[3] 	1
scalar ws1_network.node[4].core_layer 	interests[4] 	11548
scalar ws1_network.node[4].core_layer 	data[4] 	11046
scalar ws1_network.node[4].content_store 	p_hit[4] 	0.043384135781088
scalar ws1_network.node[4].content_store 	hits[4] 	501
scalar ws1_network.node[4].content_store 	misses[4] 	11047
scalar ws1_network.node[4].content_store 	decision_yes[4] 	677
scalar ws1_network.node[4].content_store 	decision_no[4] 	10369
scalar ws1_network.node[4].content_store 	decision_ratio[4] 	0.061289154445048
scalar ws1_network.node[4].content_store 	correction_factor[4] 	0.027225701061802
scalar ws1_network.node[4].content_store 	kappa[4] 	1
scalar ws1_network.node[5].core_layer 	interests[5] 	18321
scalar ws1_network.node[5].core_layer 	repo_load[5] 	7039
scalar ws1_network.node[5].core_layer 	data[5] 	10193
scalar ws1_network.node[5].content_store 	p_hit[5] 	0.053272201299056
scalar ws1_network.node[5].content_store 	hits[5] 	976
scalar ws1_network.node[5].content_store 	misses[5] 	17345
scalar ws1_network.node[5].content_store 	decision_yes[5] 	197
scalar ws1_network.node[5].content_store 	decision_no[5] 	17035
scalar ws1_network.node[5].content_store 	decision_ratio[5] 	0.011432219127205
scalar ws1_network.node[5].content_store 	correction_factor[5] 	0.027225701061802
scalar ws1_network.node[5].content_store 	kappa[5] 	1
scalar ws1_network.node[6].core_layer 	interests[6] 	443
scalar ws1_network.node[6].core_layer 	data[6] 	443
scalar ws1_network.node[6].content_store 	p_hit[6] 	0
scalar ws1_network.node[6].content_store 	hits[6] 	0
scalar ws1_network.node[6].content_store 	misses[6] 	443
scalar ws1_network.node[6].content_store 	decision_yes[6] 	0
scalar ws1_network.node[6].content_store 	decision_no[6] 	443
scalar ws1_network.node[6].content_store 	decision_ratio[6] 	0
scalar ws1_network.node[6].content_store 	correction_factor[6] 	0.027225701061802
scalar ws1_network.node[6].content_store 	kappa[6] 	1
scalar ws1_network.node[7].core_layer 	interests[7] 	8995
scalar ws1_network.node[7].core_layer 	data[7] 	8817
scalar ws1_network.node[7].content_store 	p_hit[7] 	0.019788771539744
scalar ws1_network.node[7].content_store 	hits[7] 	178
scalar ws1_network.node[7].content_store 	misses[7] 	8817
scalar ws1_network.node[7].content_store 	decision_yes[7] 	65
scalar ws1_network.node[7].content_store 	decision_no[7] 	8752
scalar ws1_network.node[7].content_store 	decision_ratio[7] 	0.007372122036974
scalar ws1_network.node[7].content_store 	correction_factor[7] 	0.027225701061802
scalar ws1_network.node[7].content_store 	kappa[7] 	1
scalar ws1_network.node[8].core_layer 	interests[8] 	13235
scalar ws1_network.node[8].core_layer 	data[8] 	11332
scalar ws1_network.node[8].content_store 	p_hit[8] 	0.12784284095202
scalar ws1_network.node[8].content_store 	hits[8] 	1692
scalar ws1_network.node[8].content_store 	misses[8] 	11543
scalar ws1_network.node[8].content_store 	decision_yes[8] 	707
scalar ws1_network.node[8].content_store 	decision_no[8] 	10625
scalar ws1_network.node[8].content_store 	decision_ratio[8] 	0.062389692905048
scalar ws1_network.node[8].content_store 	correction_factor[8] 	0.027225701061802
scalar ws1_network.node[8].content_store 	kappa[8] 	1
scalar ws1_network.node[9].core_layer 	interests[9] 	13208
scalar ws1_network.node[9].core_layer 	data[9] 	11653
scalar ws1_network.node[9].content_store 	p_hit[9] 	0.10296789824349
scalar ws1_network.node[9].content_store 	hits[9] 	1360
scalar ws1_network.node[9].content_store 	misses[9] 	11848
scalar ws1_network.node[9].content_store 	decision_yes[9] 	637
scalar ws1_network.node[9].content_store 	decision_no[9] 	11016
scalar ws1_network.node[9].content_store 	decision_ratio[9] 	0.054664035012443
scalar ws1_network.node[9].content_store 	correction_factor[9] 	0.027225701061802
scalar ws1_network.node[9].content_store 	kappa[9] 	1
scalar ws1_network.node[10].core_layer 	interests[10] 	443
scalar ws1_network.node[10].core_layer 	data[10] 	443
scalar ws1_network.node[10].content_store 	p_hit[10] 	0
scalar ws1_network.node[10].content_store 	hits[10] 	0
scalar ws1_network.node[10].content_store 	misses[10] 	443
scalar ws1_network.node[10].content_store 	decision_yes[10] 	0
scalar ws1_network.node[10].content_store 	decision_no[10] 	443
scalar ws1_network.node[10].content_store 	decision_ratio[10] 	0
scalar ws1_network.node[10].content_store 	correction_factor[10] 	0.027225701061802
scalar ws1_network.node[10].content_store 	kappa[10] 	1
scalar ws1_network.node[11].core_layer 	interests[11] 	150
scalar ws1_network.node[11].core_layer 	data[11] 	150
scalar ws1_network.node[11].content_store 	p_hit[11] 	0
scalar ws1_network.node[11].content_store 	hits[11] 	0
scalar ws1_network.node[11].content_store 	misses[11] 	150
scalar ws1_network.node[11].content_store 	decision_yes[11] 	0
scalar ws1_network.node[11].content_store 	decision_no[11] 	150
scalar ws1_network.node[11].content_store 	decision_ratio[11] 	0
scalar ws1_network.node[11].content_store 	correction_factor[11] 	0.027225701061802
scalar ws1_network.node[11].content_store 	kappa[11] 	1
scalar ws1_network.node[12].core_layer 	interests[12] 	0
scalar ws1_network.node[12].core_layer 	data[12] 	0
scalar ws1_network.node[12].content_store 	p_hit[12] 	-nan
scalar ws1_network.node[12].content_store 	hits[12] 	0
scalar ws1_network.node[12].content_store 	misses[12] 	0
scalar ws1_network.node[12].content_store 	decision_yes[12] 	0
scalar ws1_network.node[12].content_store 	decision_no[12] 	0
scalar ws1_network.node[12].content_store 	decision_ratio[12] 	0
scalar ws1_network.node[12].content_store 	correction_factor[12] 	0.027225701061802
scalar ws1_network.node[12].content_store 	kappa[12] 	1
scalar ws1_network.node[13].core_layer 	interests[13] 	0
scalar ws1_network.node[13].core_layer 	data[13] 	0
scalar ws1_network.node[13].content_store 	p_hit[13] 	-nan
scalar ws1_network.node[13].content_store 	hits[13] 	0
scalar ws1_network.node[13].content_store 	misses[13] 	0
scalar ws1_network.node[13].content_store 	decision_yes[13] 	0
scalar ws1_network.node[13].content_store 	decision_no[13] 	0
scalar ws1_network.node[13].content_store 	decision_ratio[13] 	0
scalar ws1_network.node[13].content_store 	correction_factor[13] 	0.027225701061802
scalar ws1_network.node[13].content_store 	kappa[13] 	1
scalar ws1_network.node[14].core_layer 	interests[14] 	15242
scalar ws1_network.node[14].core_layer 	repo_load[14] 	15242
scalar ws1_network.node[14].core_layer 	data[14] 	0
scalar ws1_network.node[14].content_store 	p_hit[14] 	0
scalar ws1_network.node[14].content_store 	hits[14] 	0
scalar ws1_network.node[14].content_store 	misses[14] 	15242
scalar ws1_network.node[14].content_store 	decision_yes[14] 	0
scalar ws1_network.node[14].content_store 	decision_no[14] 	15242
scalar ws1_network.node[14].content_store 	decision_ratio[14] 	0
scalar ws1_network.node[14].content_store 	correction_factor[14] 	0.027225701061802
scalar ws1_network.node[14].content_store 	kappa[14] 	1
scalar ws1_network.node[15].core_layer 	interests[15] 	0
scalar ws1_network.node[15].core_layer 	data[15] 	0
scalar ws1_network.node[15].content_store 	p_hit[15] 	-nan
scalar ws1_network.node[15].content_store 	hits[15] 	0
scalar ws1_network.node[15].content_store 	misses[15] 	0
scalar ws1_network.node[15].content_store 	decision_yes[15] 	0
scalar ws1_network.node[15].content_store 	decision_no[15] 	0
scalar ws1_network.node[15].content_store 	decision_ratio[15] 	0
scalar ws1_network.node[15].content_store 	correction_factor[15] 	0.027225701061802
scalar ws1_network.node[15].content_store 	kappa[15] 	1
scalar ws1_network.node[16].core_layer 	interests[16] 	2680
scalar ws1_network.node[16].core_layer 	data[16] 	2311
scalar ws1_network.node[16].content_store 	p_hit[16] 	0.13768656716418
scalar ws1_network.node[16].content_store 	hits[16] 	369
scalar ws1_network.node[16].content_store 	misses[16] 	2311
scalar ws1_network.node[16].content_store 	decision_yes[16] 	551
scalar ws1_network.node[16].content_store 	decision_no[16] 	1760
scalar ws1_network.node[16].content_store 	decision_ratio[16] 	0.23842492427521
scalar ws1_network.node[16].content_store 	correction_factor[16] 	0.027225701061802
scalar ws1_network.node[16].content_store 	kappa[16] 	1
scalar ws1_network.node[17].core_layer 	interests[17] 	7796
scalar ws1_network.node[17].core_layer 	data[17] 	7724
scalar ws1_network.node[17].content_store 	p_hit[17] 	0.0092355053873781
scalar ws1_network.node[17].content_store 	hits[17] 	72
scalar ws1_network.node[17].content_store 	misses[17] 	7724
scalar ws1_network.node[17].content_store 	decision_yes[17] 	68
scalar ws1_network.node[17].content_store 	decision_no[17] 	7656
scalar ws1_network.node[17].content_store 	decision_ratio[17] 	0.0088037286380114
scalar ws1_network.node[17].content_store 	correction_factor[17] 	0.027225701061802
scalar ws1_network.node[17].content_store 	kappa[17] 	1
scalar ws1_network.node[18].core_layer 	interests[18] 	12643
scalar ws1_network.node[18].core_layer 	data[18] 	11532
scalar ws1_network.node[18].content_store 	p_hit[18] 	0.076089535711461
scalar ws1_network.node[18].content_store 	hits[18] 	962
scalar ws1_network.node[18].content_store 	misses[18] 	11681
scalar ws1_network.node[18].content_store 	decision_yes[18] 	674
scalar ws1_network.node[18].content_store 	decision_no[18] 	10858
scalar ws1_network.node[18].content_store 	decision_ratio[18] 	0.058446063128685
scalar ws1_network.node[18].content_store 	correction_factor[18] 	0.027225701061802
scalar ws1_network.node[18].content_store 	kappa[18] 	1
scalar ws1_network.node[19].core_layer 	interests[19] 	250
scalar ws1_network.node[19].core_layer 	data[19] 	250
scalar ws1_network.node[19].content_store 	p_hit[19] 	0
scalar ws1_network.node[19].content_store 	hits[19] 	0
scalar ws1_network.node[19].content_store 	misses[19] 	250
scalar ws1_network.node[19].content_store 	decision_yes[19] 	0
scalar ws1_network.node[19].content_store 	decision_no[19] 	250
scalar ws1_network.node[19].content_store 	decision_ratio[19] 	0
scalar ws1_network.node[19].content_store 	correction_factor[19] 	0.027225701061802
scalar ws1_network.node[19].content_store 	kappa[19] 	1
scalar ws1_network.node[20].core_layer 	interests[20] 	0
scalar ws1_network.node[20].core_layer 	data[20] 	0
scalar ws1_network.node[20].content_store 	p_hit[20] 	-nan
scalar ws1_network.node[20].content_store 	hits[20] 	0
scalar ws1_network.node[20].content_store 	misses[20] 	0
scalar ws1_network.node[20].content_store 	decision_yes[20] 	0
scalar ws1_network.node[20].content_store 	decision_no[20] 	0
scalar ws1_network.node[20].content_store 	decision_ratio[20] 	0
scalar ws1_network.node[20].content_store 	correction_factor[20] 	0.027225701061802
scalar ws1_network.node[20].content_store 	kappa[20] 	1
scalar ws1_network.node[21].core_layer 	interests[21] 	0
scalar ws1_network.node[21].core_layer 	data[21] 	0
scalar ws1_network.node[21].content_store 	p_hit[21] 	-nan
scalar ws1_network.node[21].content_store 	hits[21] 	0
scalar ws1_network.node[21].content_store 	misses[21] 	0
scalar ws1_network.node[21].content_store 	decision_yes[21] 	0
scalar ws1_network.node[21].content_store 	decision_no[21] 	0
scalar ws1_network.node[21].content_store 	decision_ratio[21] 	0
scalar ws1_network.node[21].content_store 	correction_factor[21] 	0.027225701061802
scalar ws1_network.node[21].content_store 	kappa[21] 	1
scalar ws1_network.client[8] 	hdistance[8] 	2.8969183487001
scalar ws1_network.client[8] 	downloads[8] 	12039
scalar ws1_network.client[8] 	avg_time[8] 	0.010715234026
scalar ws1_network.client[8] 	interests_sent[8] 	12250
scalar ws1_network.client[9] 	hdistance[9] 	3.2975938871728
scalar ws1_network.client[9] 	downloads[9] 	12302
scalar ws1_network.client[9] 	avg_time[9] 	0.012888937182
scalar ws1_network.client[9] 	interests_sent[9] 	12497
scalar ws1_network.client[18] 	hdistance[18] 	2.9598703888335
scalar ws1_network.client[18] 	downloads[18] 	12036
scalar ws1_network.client[18] 	avg_time[18] 	0.011167776137
scalar ws1_network.client[18] 	interests_sent[18] 	12185
