version 2
run General-0-20141030-18:19:38-22263
attr D costaware0.1
attr F nrr
attr R lru
attr a 1
attr configname General
attr csize 1e3
attr ctlg 1e5
attr datetime 20141030-18:19:38
attr experiment General
attr inifile omnetpp.ini
attr iterationvars "$rep=1, $lambda=100, $a=1, $ctlg=1e5, $F=nrr, $ttl=10, $D=costaware0.1, $R=lru, $csize=1e3, $window=60, $variance=0.05, $mytime=1800, $kappa=1, $priceratiovalue=10, $pricebits=0"
attr iterationvars2 "$rep=1, $lambda=100, $a=1, $ctlg=1e5, $F=nrr, $ttl=10, $D=costaware0.1, $R=lru, $csize=1e3, $window=60, $variance=0.05, $mytime=1800, $kappa=1, $priceratiovalue=10, $pricebits=0, $repetition=0"
attr kappa 1
attr lambda 100
attr measurement "$rep=1, $lambda=100, $a=1, $ctlg=1e5, $F=nrr, $ttl=10, $D=costaware0.1, $R=lru, $csize=1e3, $window=60, $variance=0.05, $mytime=1800, $kappa=1, $priceratiovalue=10, $pricebits=0"
attr mytime 1800
attr network networks.ws${rep}_network
attr pricebits 0
attr priceratiovalue 10
attr processid 22263
attr rep 1
attr repetition 0
attr replication #0
attr resultdir results
attr runnumber 0
attr seedset 1
attr ttl 10
attr variance 0.05
attr window 60

scalar . 	a 	1
scalar . 	csize 	1e3
scalar . 	ctlg 	1e5
scalar . 	kappa 	1
scalar . 	lambda 	100
scalar . 	mytime 	1800
scalar . 	pricebits 	0
scalar . 	priceratiovalue 	10
scalar . 	rep 	1
scalar . 	ttl 	10
scalar . 	variance 	0.05
scalar . 	window 	60
scalar ws1_network.content_distribution 	repo-0 	14
scalar ws1_network.content_distribution 	repo-1 	5
scalar ws1_network.content_distribution 	repo-2 	1
scalar ws1_network.content_distribution 	client-0 	8
scalar ws1_network.content_distribution 	client-1 	18
scalar ws1_network.content_distribution 	client-2 	9
scalar ws1_network.content_distribution 	repo-0_card 	33398
scalar ws1_network.content_distribution 	repo-0_price 	0
scalar ws1_network.content_distribution 	repo-1_card 	33040
scalar ws1_network.content_distribution 	repo-1_price 	1
scalar ws1_network.content_distribution 	repo-2_card 	33562
scalar ws1_network.content_distribution 	repo-2_price 	10
scalar ws1_network.statistics 	repo_popularity[0] 	0.42710281340035
scalar ws1_network.statistics 	repo_popularity[1] 	0.27050451919503
scalar ws1_network.statistics 	repo_popularity[2] 	0.30239266740463
scalar ws1_network.statistics 	p_hit 	0.065853614984912
scalar ws1_network.statistics 	interests 	12727.954545455
scalar ws1_network.statistics 	data 	8766.6818181818
scalar ws1_network.statistics 	hdistance 	3.03165023492
scalar ws1_network.statistics 	avg_time 	0.011563462584
scalar ws1_network.statistics 	downloads 	85921
scalar ws1_network.statistics 	total_cost 	170716
scalar ws1_network.statistics 	total_replicas 	100000
scalar ws1_network.statistics 	inner_hit 	0.21745556965119
scalar ws1_network.statistics 	interests_sent 	87143
scalar ws1_network.node[0].core_layer 	interests[0] 	697
scalar ws1_network.node[0].core_layer 	data[0] 	697
scalar ws1_network.node[0].core_layer 	repo_int[0] 	67237
scalar ws1_network.node[0].content_store 	p_hit[0] 	0
scalar ws1_network.node[0].content_store 	hits[0] 	0
scalar ws1_network.node[0].content_store 	misses[0] 	697
scalar ws1_network.node[0].content_store 	decision_yes[0] 	0
scalar ws1_network.node[0].content_store 	decision_no[0] 	697
scalar ws1_network.node[0].content_store 	decision_ratio[0] 	0
scalar ws1_network.node[0].content_store 	correction_factor[0] 	0.027225701061802
scalar ws1_network.node[0].content_store 	kappa[0] 	1
scalar ws1_network.node[1].core_layer 	interests[1] 	17034
scalar ws1_network.node[1].core_layer 	repo_load[1] 	15492
scalar ws1_network.node[1].core_layer 	data[1] 	0
scalar ws1_network.node[1].content_store 	p_hit[1] 	0.090524832687566
scalar ws1_network.node[1].content_store 	hits[1] 	1542
scalar ws1_network.node[1].content_store 	misses[1] 	15492
scalar ws1_network.node[1].content_store 	decision_yes[1] 	4194
scalar ws1_network.node[1].content_store 	decision_no[1] 	11298
scalar ws1_network.node[1].content_store 	decision_ratio[1] 	0.2707203718048
scalar ws1_network.node[1].content_store 	correction_factor[1] 	0.027225701061802
scalar ws1_network.node[1].content_store 	kappa[1] 	1
scalar ws1_network.node[2].core_layer 	interests[2] 	5736
scalar ws1_network.node[2].core_layer 	data[2] 	5169
scalar ws1_network.node[2].content_store 	p_hit[2] 	0.098849372384937
scalar ws1_network.node[2].content_store 	hits[2] 	567
scalar ws1_network.node[2].content_store 	misses[2] 	5169
scalar ws1_network.node[2].content_store 	decision_yes[2] 	1407
scalar ws1_network.node[2].content_store 	decision_no[2] 	3762
scalar ws1_network.node[2].content_store 	decision_ratio[2] 	0.27219965177017
scalar ws1_network.node[2].content_store 	correction_factor[2] 	0.027225701061802
scalar ws1_network.node[2].content_store 	kappa[2] 	1
scalar ws1_network.node[3].core_layer 	interests[3] 	8627
scalar ws1_network.node[3].core_layer 	data[3] 	8192
scalar ws1_network.node[3].content_store 	p_hit[3] 	0.050307175147792
scalar ws1_network.node[3].content_store 	hits[3] 	434
scalar ws1_network.node[3].content_store 	misses[3] 	8193
scalar ws1_network.node[3].content_store 	decision_yes[3] 	1354
scalar ws1_network.node[3].content_store 	decision_no[3] 	6837
scalar ws1_network.node[3].content_store 	decision_ratio[3] 	0.16530338176047
scalar ws1_network.node[3].content_store 	correction_factor[3] 	0.027225701061802
scalar ws1_network.node[3].content_store 	kappa[3] 	1
scalar ws1_network.node[4].core_layer 	interests[4] 	27109
scalar ws1_network.node[4].core_layer 	data[4] 	25807
scalar ws1_network.node[4].content_store 	p_hit[4] 	0.047991441956546
scalar ws1_network.node[4].content_store 	hits[4] 	1301
scalar ws1_network.node[4].content_store 	misses[4] 	25808
scalar ws1_network.node[4].content_store 	decision_yes[4] 	1510
scalar ws1_network.node[4].content_store 	decision_no[4] 	24297
scalar ws1_network.node[4].content_store 	decision_ratio[4] 	0.058511256635796
scalar ws1_network.node[4].content_store 	correction_factor[4] 	0.027225701061802
scalar ws1_network.node[4].content_store 	kappa[4] 	1
scalar ws1_network.node[5].core_layer 	interests[5] 	42740
scalar ws1_network.node[5].core_layer 	repo_load[5] 	15796
scalar ws1_network.node[5].core_layer 	data[5] 	24010
scalar ws1_network.node[5].content_store 	p_hit[5] 	0.062891904539073
scalar ws1_network.node[5].content_store 	hits[5] 	2688
scalar ws1_network.node[5].content_store 	misses[5] 	40052
scalar ws1_network.node[5].content_store 	decision_yes[5] 	440
scalar ws1_network.node[5].content_store 	decision_no[5] 	39366
scalar ws1_network.node[5].content_store 	decision_ratio[5] 	0.011053610008541
scalar ws1_network.node[5].content_store 	correction_factor[5] 	0.027225701061802
scalar ws1_network.node[5].content_store 	kappa[5] 	1
scalar ws1_network.node[6].core_layer 	interests[6] 	1173
scalar ws1_network.node[6].core_layer 	data[6] 	1173
scalar ws1_network.node[6].content_store 	p_hit[6] 	0
scalar ws1_network.node[6].content_store 	hits[6] 	0
scalar ws1_network.node[6].content_store 	misses[6] 	1173
scalar ws1_network.node[6].content_store 	decision_yes[6] 	0
scalar ws1_network.node[6].content_store 	decision_no[6] 	1173
scalar ws1_network.node[6].content_store 	decision_ratio[6] 	0
scalar ws1_network.node[6].content_store 	correction_factor[6] 	0.027225701061802
scalar ws1_network.node[6].content_store 	kappa[6] 	1
scalar ws1_network.node[7].core_layer 	interests[7] 	21687
scalar ws1_network.node[7].core_layer 	data[7] 	20765
scalar ws1_network.node[7].content_store 	p_hit[7] 	0.042513948448379
scalar ws1_network.node[7].content_store 	hits[7] 	922
scalar ws1_network.node[7].content_store 	misses[7] 	20765
scalar ws1_network.node[7].content_store 	decision_yes[7] 	161
scalar ws1_network.node[7].content_store 	decision_no[7] 	20604
scalar ws1_network.node[7].content_store 	decision_ratio[7] 	0.0077534312545148
scalar ws1_network.node[7].content_store 	correction_factor[7] 	0.027225701061802
scalar ws1_network.node[7].content_store 	kappa[7] 	1
scalar ws1_network.node[8].core_layer 	interests[8] 	31415
scalar ws1_network.node[8].core_layer 	data[8] 	26701
scalar ws1_network.node[8].content_store 	p_hit[8] 	0.1356676746777
scalar ws1_network.node[8].content_store 	hits[8] 	4262
scalar ws1_network.node[8].content_store 	misses[8] 	27153
scalar ws1_network.node[8].content_store 	decision_yes[8] 	1619
scalar ws1_network.node[8].content_store 	decision_no[8] 	25082
scalar ws1_network.node[8].content_store 	decision_ratio[8] 	0.060634433167297
scalar ws1_network.node[8].content_store 	correction_factor[8] 	0.027225701061802
scalar ws1_network.node[8].content_store 	kappa[8] 	1
scalar ws1_network.node[9].core_layer 	interests[9] 	31273
scalar ws1_network.node[9].core_layer 	data[9] 	27299
scalar ws1_network.node[9].content_store 	p_hit[9] 	0.11278099318901
scalar ws1_network.node[9].content_store 	hits[9] 	3527
scalar ws1_network.node[9].content_store 	misses[9] 	27746
scalar ws1_network.node[9].content_store 	decision_yes[9] 	1517
scalar ws1_network.node[9].content_store 	decision_no[9] 	25782
scalar ws1_network.node[9].content_store 	decision_ratio[9] 	0.055569801091615
scalar ws1_network.node[9].content_store 	correction_factor[9] 	0.027225701061802
scalar ws1_network.node[9].content_store 	kappa[9] 	1
scalar ws1_network.node[10].core_layer 	interests[10] 	1173
scalar ws1_network.node[10].core_layer 	data[10] 	1173
scalar ws1_network.node[10].content_store 	p_hit[10] 	0
scalar ws1_network.node[10].content_store 	hits[10] 	0
scalar ws1_network.node[10].content_store 	misses[10] 	1173
scalar ws1_network.node[10].content_store 	decision_yes[10] 	0
scalar ws1_network.node[10].content_store 	decision_no[10] 	1173
scalar ws1_network.node[10].content_store 	decision_ratio[10] 	0
scalar ws1_network.node[10].content_store 	correction_factor[10] 	0.027225701061802
scalar ws1_network.node[10].content_store 	kappa[10] 	1
scalar ws1_network.node[11].core_layer 	interests[11] 	419
scalar ws1_network.node[11].core_layer 	data[11] 	419
scalar ws1_network.node[11].content_store 	p_hit[11] 	0
scalar ws1_network.node[11].content_store 	hits[11] 	0
scalar ws1_network.node[11].content_store 	misses[11] 	419
scalar ws1_network.node[11].content_store 	decision_yes[11] 	0
scalar ws1_network.node[11].content_store 	decision_no[11] 	419
scalar ws1_network.node[11].content_store 	decision_ratio[11] 	0
scalar ws1_network.node[11].content_store 	correction_factor[11] 	0.027225701061802
scalar ws1_network.node[11].content_store 	kappa[11] 	1
scalar ws1_network.node[12].core_layer 	interests[12] 	0
scalar ws1_network.node[12].core_layer 	data[12] 	0
scalar ws1_network.node[12].content_store 	p_hit[12] 	-nan
scalar ws1_network.node[12].content_store 	hits[12] 	0
scalar ws1_network.node[12].content_store 	misses[12] 	0
scalar ws1_network.node[12].content_store 	decision_yes[12] 	0
scalar ws1_network.node[12].content_store 	decision_no[12] 	0
scalar ws1_network.node[12].content_store 	decision_ratio[12] 	0
scalar ws1_network.node[12].content_store 	correction_factor[12] 	0.027225701061802
scalar ws1_network.node[12].content_store 	kappa[12] 	1
scalar ws1_network.node[13].core_layer 	interests[13] 	0
scalar ws1_network.node[13].core_layer 	data[13] 	0
scalar ws1_network.node[13].content_store 	p_hit[13] 	-nan
scalar ws1_network.node[13].content_store 	hits[13] 	0
scalar ws1_network.node[13].content_store 	misses[13] 	0
scalar ws1_network.node[13].content_store 	decision_yes[13] 	0
scalar ws1_network.node[13].content_store 	decision_no[13] 	0
scalar ws1_network.node[13].content_store 	decision_ratio[13] 	0
scalar ws1_network.node[13].content_store 	correction_factor[13] 	0.027225701061802
scalar ws1_network.node[13].content_store 	kappa[13] 	1
scalar ws1_network.node[14].core_layer 	interests[14] 	35949
scalar ws1_network.node[14].core_layer 	repo_load[14] 	35949
scalar ws1_network.node[14].core_layer 	data[14] 	0
scalar ws1_network.node[14].content_store 	p_hit[14] 	0
scalar ws1_network.node[14].content_store 	hits[14] 	0
scalar ws1_network.node[14].content_store 	misses[14] 	35949
scalar ws1_network.node[14].content_store 	decision_yes[14] 	0
scalar ws1_network.node[14].content_store 	decision_no[14] 	35949
scalar ws1_network.node[14].content_store 	decision_ratio[14] 	0
scalar ws1_network.node[14].content_store 	correction_factor[14] 	0.027225701061802
scalar ws1_network.node[14].content_store 	kappa[14] 	1
scalar ws1_network.node[15].core_layer 	interests[15] 	0
scalar ws1_network.node[15].core_layer 	data[15] 	0
scalar ws1_network.node[15].content_store 	p_hit[15] 	-nan
scalar ws1_network.node[15].content_store 	hits[15] 	0
scalar ws1_network.node[15].content_store 	misses[15] 	0
scalar ws1_network.node[15].content_store 	decision_yes[15] 	0
scalar ws1_network.node[15].content_store 	decision_no[15] 	0
scalar ws1_network.node[15].content_store 	decision_ratio[15] 	0
scalar ws1_network.node[15].content_store 	correction_factor[15] 	0.027225701061802
scalar ws1_network.node[15].content_store 	kappa[15] 	1
scalar ws1_network.node[16].core_layer 	interests[16] 	6113
scalar ws1_network.node[16].core_layer 	data[16] 	5340
scalar ws1_network.node[16].content_store 	p_hit[16] 	0.12628823818093
scalar ws1_network.node[16].content_store 	hits[16] 	772
scalar ws1_network.node[16].content_store 	misses[16] 	5341
scalar ws1_network.node[16].content_store 	decision_yes[16] 	1332
scalar ws1_network.node[16].content_store 	decision_no[16] 	4008
scalar ws1_network.node[16].content_store 	decision_ratio[16] 	0.24943820224719
scalar ws1_network.node[16].content_store 	correction_factor[16] 	0.027225701061802
scalar ws1_network.node[16].content_store 	kappa[16] 	1
scalar ws1_network.node[17].core_layer 	interests[17] 	18304
scalar ws1_network.node[17].core_layer 	data[17] 	18012
scalar ws1_network.node[17].content_store 	p_hit[17] 	0.015952797202797
scalar ws1_network.node[17].content_store 	hits[17] 	292
scalar ws1_network.node[17].content_store 	misses[17] 	18012
scalar ws1_network.node[17].content_store 	decision_yes[17] 	142
scalar ws1_network.node[17].content_store 	decision_no[17] 	17870
scalar ws1_network.node[17].content_store 	decision_ratio[17] 	0.0078836331334666
scalar ws1_network.node[17].content_store 	correction_factor[17] 	0.027225701061802
scalar ws1_network.node[17].content_store 	kappa[17] 	1
scalar ws1_network.node[18].core_layer 	interests[18] 	29869
scalar ws1_network.node[18].core_layer 	data[18] 	27413
scalar ws1_network.node[18].content_store 	p_hit[18] 	0.071411831664937
scalar ws1_network.node[18].content_store 	hits[18] 	2133
scalar ws1_network.node[18].content_store 	misses[18] 	27736
scalar ws1_network.node[18].content_store 	decision_yes[18] 	1580
scalar ws1_network.node[18].content_store 	decision_no[18] 	25833
scalar ws1_network.node[18].content_store 	decision_ratio[18] 	0.057636887608069
scalar ws1_network.node[18].content_store 	correction_factor[18] 	0.027225701061802
scalar ws1_network.node[18].content_store 	kappa[18] 	1
scalar ws1_network.node[19].core_layer 	interests[19] 	697
scalar ws1_network.node[19].core_layer 	data[19] 	697
scalar ws1_network.node[19].content_store 	p_hit[19] 	0
scalar ws1_network.node[19].content_store 	hits[19] 	0
scalar ws1_network.node[19].content_store 	misses[19] 	697
scalar ws1_network.node[19].content_store 	decision_yes[19] 	0
scalar ws1_network.node[19].content_store 	decision_no[19] 	697
scalar ws1_network.node[19].content_store 	decision_ratio[19] 	0
scalar ws1_network.node[19].content_store 	correction_factor[19] 	0.027225701061802
scalar ws1_network.node[19].content_store 	kappa[19] 	1
scalar ws1_network.node[20].core_layer 	interests[20] 	0
scalar ws1_network.node[20].core_layer 	data[20] 	0
scalar ws1_network.node[20].content_store 	p_hit[20] 	-nan
scalar ws1_network.node[20].content_store 	hits[20] 	0
scalar ws1_network.node[20].content_store 	misses[20] 	0
scalar ws1_network.node[20].content_store 	decision_yes[20] 	0
scalar ws1_network.node[20].content_store 	decision_no[20] 	0
scalar ws1_network.node[20].content_store 	decision_ratio[20] 	0
scalar ws1_network.node[20].content_store 	correction_factor[20] 	0.027225701061802
scalar ws1_network.node[20].content_store 	kappa[20] 	1
scalar ws1_network.node[21].core_layer 	interests[21] 	0
scalar ws1_network.node[21].core_layer 	data[21] 	0
scalar ws1_network.node[21].content_store 	p_hit[21] 	-nan
scalar ws1_network.node[21].content_store 	hits[21] 	0
scalar ws1_network.node[21].content_store 	misses[21] 	0
scalar ws1_network.node[21].content_store 	decision_yes[21] 	0
scalar ws1_network.node[21].content_store 	decision_no[21] 	0
scalar ws1_network.node[21].content_store 	decision_ratio[21] 	0
scalar ws1_network.node[21].content_store 	correction_factor[21] 	0.027225701061802
scalar ws1_network.node[21].content_store 	kappa[21] 	1
scalar ws1_network.client[8] 	hdistance[8] 	2.8742268765814
scalar ws1_network.client[8] 	downloads[8] 	28456
scalar ws1_network.client[8] 	avg_time[8] 	0.010680946932
scalar ws1_network.client[8] 	interests_sent[8] 	28908
scalar ws1_network.client[9] 	hdistance[9] 	3.2665146489773
scalar ws1_network.client[9] 	downloads[9] 	28944
scalar ws1_network.client[9] 	avg_time[9] 	0.012784140361
scalar ws1_network.client[9] 	interests_sent[9] 	29391
scalar ws1_network.client[18] 	hdistance[18] 	2.9542091792013
scalar ws1_network.client[18] 	downloads[18] 	28521
scalar ws1_network.client[18] 	avg_time[18] 	0.01122530046
scalar ws1_network.client[18] 	interests_sent[18] 	28844
