version 2
run General-3-20141030-18:25:08-22338
attr D costaware0.1
attr F nrr
attr R lru
attr a 1
attr configname General
attr csize 1e3
attr ctlg 1e5
attr datetime 20141030-18:25:08
attr experiment General
attr inifile omnetpp.ini
attr iterationvars "$rep=4, $lambda=100, $a=1, $ctlg=1e5, $F=nrr, $ttl=10, $D=costaware0.1, $R=lru, $csize=1e3, $window=60, $variance=0.05, $mytime=1800, $kappa=1, $priceratiovalue=10, $pricebits=0"
attr iterationvars2 "$rep=4, $lambda=100, $a=1, $ctlg=1e5, $F=nrr, $ttl=10, $D=costaware0.1, $R=lru, $csize=1e3, $window=60, $variance=0.05, $mytime=1800, $kappa=1, $priceratiovalue=10, $pricebits=0, $repetition=0"
attr kappa 1
attr lambda 100
attr measurement "$rep=4, $lambda=100, $a=1, $ctlg=1e5, $F=nrr, $ttl=10, $D=costaware0.1, $R=lru, $csize=1e3, $window=60, $variance=0.05, $mytime=1800, $kappa=1, $priceratiovalue=10, $pricebits=0"
attr mytime 1800
attr network networks.ws${rep}_network
attr pricebits 0
attr priceratiovalue 10
attr processid 22338
attr rep 4
attr repetition 0
attr replication #0
attr resultdir results
attr runnumber 3
attr seedset 4
attr ttl 10
attr variance 0.05
attr window 60

scalar . 	a 	1
scalar . 	csize 	1e3
scalar . 	ctlg 	1e5
scalar . 	kappa 	1
scalar . 	lambda 	100
scalar . 	mytime 	1800
scalar . 	pricebits 	0
scalar . 	priceratiovalue 	10
scalar . 	rep 	4
scalar . 	ttl 	10
scalar . 	variance 	0.05
scalar . 	window 	60
scalar ws4_network.content_distribution 	repo-0 	18
scalar ws4_network.content_distribution 	repo-1 	16
scalar ws4_network.content_distribution 	repo-2 	10
scalar ws4_network.content_distribution 	client-0 	6
scalar ws4_network.content_distribution 	client-1 	2
scalar ws4_network.content_distribution 	client-2 	20
scalar ws4_network.content_distribution 	repo-0_card 	33274
scalar ws4_network.content_distribution 	repo-0_price 	0
scalar ws4_network.content_distribution 	repo-1_card 	33153
scalar ws4_network.content_distribution 	repo-1_price 	1
scalar ws4_network.content_distribution 	repo-2_card 	33573
scalar ws4_network.content_distribution 	repo-2_price 	10
scalar ws4_network.statistics 	repo_popularity[0] 	0.33945880017902
scalar ws4_network.statistics 	repo_popularity[1] 	0.30988277584688
scalar ws4_network.statistics 	repo_popularity[2] 	0.35065842397411
scalar ws4_network.statistics 	p_hit 	0.094570270175807
scalar ws4_network.statistics 	interests 	5202
scalar ws4_network.statistics 	data 	3520.5909090909
scalar ws4_network.statistics 	hdistance 	2.8234725614163
scalar ws4_network.statistics 	avg_time 	0.010921580923
scalar ws4_network.statistics 	downloads 	36600
scalar ws4_network.statistics 	total_cost 	71289
scalar ws4_network.statistics 	total_replicas 	100000
scalar ws4_network.statistics 	inner_hit 	0.30010928961749
scalar ws4_network.statistics 	interests_sent 	36990
scalar ws4_network.node[0].core_layer 	interests[0] 	12581
scalar ws4_network.node[0].core_layer 	data[0] 	12132
scalar ws4_network.node[0].core_layer 	repo_int[0] 	25616
scalar ws4_network.node[0].content_store 	p_hit[0] 	0.035450282171528
scalar ws4_network.node[0].content_store 	hits[0] 	446
scalar ws4_network.node[0].content_store 	misses[0] 	12135
scalar ws4_network.node[0].content_store 	decision_yes[0] 	110
scalar ws4_network.node[0].content_store 	decision_no[0] 	12022
scalar ws4_network.node[0].content_store 	decision_ratio[0] 	0.0090669304319156
scalar ws4_network.node[0].content_store 	correction_factor[0] 	0.027225701061802
scalar ws4_network.node[0].content_store 	kappa[0] 	1
scalar ws4_network.node[1].core_layer 	interests[1] 	0
scalar ws4_network.node[1].core_layer 	data[1] 	0
scalar ws4_network.node[1].content_store 	p_hit[1] 	-nan
scalar ws4_network.node[1].content_store 	hits[1] 	0
scalar ws4_network.node[1].content_store 	misses[1] 	0
scalar ws4_network.node[1].content_store 	decision_yes[1] 	0
scalar ws4_network.node[1].content_store 	decision_no[1] 	0
scalar ws4_network.node[1].content_store 	decision_ratio[1] 	0
scalar ws4_network.node[1].content_store 	correction_factor[1] 	0.027225701061802
scalar ws4_network.node[1].content_store 	kappa[1] 	1
scalar ws4_network.node[2].core_layer 	interests[2] 	14237
scalar ws4_network.node[2].core_layer 	data[2] 	11691
scalar ws4_network.node[2].content_store 	p_hit[2] 	0.16829388213809
scalar ws4_network.node[2].content_store 	hits[2] 	2396
scalar ws4_network.node[2].content_store 	misses[2] 	11841
scalar ws4_network.node[2].content_store 	decision_yes[2] 	650
scalar ws4_network.node[2].content_store 	decision_no[2] 	11041
scalar ws4_network.node[2].content_store 	decision_ratio[2] 	0.055598323496707
scalar ws4_network.node[2].content_store 	correction_factor[2] 	0.027225701061802
scalar ws4_network.node[2].content_store 	kappa[2] 	1
scalar ws4_network.node[3].core_layer 	interests[3] 	0
scalar ws4_network.node[3].core_layer 	data[3] 	0
scalar ws4_network.node[3].content_store 	p_hit[3] 	-nan
scalar ws4_network.node[3].content_store 	hits[3] 	0
scalar ws4_network.node[3].content_store 	misses[3] 	0
scalar ws4_network.node[3].content_store 	decision_yes[3] 	0
scalar ws4_network.node[3].content_store 	decision_no[3] 	0
scalar ws4_network.node[3].content_store 	decision_ratio[3] 	0
scalar ws4_network.node[3].content_store 	correction_factor[3] 	0.027225701061802
scalar ws4_network.node[3].content_store 	kappa[3] 	1
scalar ws4_network.node[4].core_layer 	interests[4] 	8220
scalar ws4_network.node[4].core_layer 	data[4] 	6904
scalar ws4_network.node[4].content_store 	p_hit[4] 	0.1543795620438
scalar ws4_network.node[4].content_store 	hits[4] 	1269
scalar ws4_network.node[4].content_store 	misses[4] 	6951
scalar ws4_network.node[4].content_store 	decision_yes[4] 	1174
scalar ws4_network.node[4].content_store 	decision_no[4] 	5730
scalar ws4_network.node[4].content_store 	decision_ratio[4] 	0.17004634994206
scalar ws4_network.node[4].content_store 	correction_factor[4] 	0.027225701061802
scalar ws4_network.node[4].content_store 	kappa[4] 	1
scalar ws4_network.node[5].core_layer 	interests[5] 	0
scalar ws4_network.node[5].core_layer 	data[5] 	0
scalar ws4_network.node[5].content_store 	p_hit[5] 	-nan
scalar ws4_network.node[5].content_store 	hits[5] 	0
scalar ws4_network.node[5].content_store 	misses[5] 	0
scalar ws4_network.node[5].content_store 	decision_yes[5] 	0
scalar ws4_network.node[5].content_store 	decision_no[5] 	0
scalar ws4_network.node[5].content_store 	decision_ratio[5] 	0
scalar ws4_network.node[5].content_store 	correction_factor[5] 	0.027225701061802
scalar ws4_network.node[5].content_store 	kappa[5] 	1
scalar ws4_network.node[6].core_layer 	interests[6] 	13477
scalar ws4_network.node[6].core_layer 	data[6] 	11688
scalar ws4_network.node[6].content_store 	p_hit[6] 	0.12250500853306
scalar ws4_network.node[6].content_store 	hits[6] 	1651
scalar ws4_network.node[6].content_store 	misses[6] 	11826
scalar ws4_network.node[6].content_store 	decision_yes[6] 	704
scalar ws4_network.node[6].content_store 	decision_no[6] 	10984
scalar ws4_network.node[6].content_store 	decision_ratio[6] 	0.060232717316906
scalar ws4_network.node[6].content_store 	correction_factor[6] 	0.027225701061802
scalar ws4_network.node[6].content_store 	kappa[6] 	1
scalar ws4_network.node[7].core_layer 	interests[7] 	3272
scalar ws4_network.node[7].core_layer 	data[7] 	2842
scalar ws4_network.node[7].content_store 	p_hit[7] 	0.13141809290954
scalar ws4_network.node[7].content_store 	hits[7] 	430
scalar ws4_network.node[7].content_store 	misses[7] 	2842
scalar ws4_network.node[7].content_store 	decision_yes[7] 	591
scalar ws4_network.node[7].content_store 	decision_no[7] 	2251
scalar ws4_network.node[7].content_store 	decision_ratio[7] 	0.20795214637579
scalar ws4_network.node[7].content_store 	correction_factor[7] 	0.027225701061802
scalar ws4_network.node[7].content_store 	kappa[7] 	1
scalar ws4_network.node[8].core_layer 	interests[8] 	12415
scalar ws4_network.node[8].core_layer 	data[8] 	12024
scalar ws4_network.node[8].content_store 	p_hit[8] 	0.025453080950463
scalar ws4_network.node[8].content_store 	hits[8] 	316
scalar ws4_network.node[8].content_store 	misses[8] 	12099
scalar ws4_network.node[8].content_store 	decision_yes[8] 	68
scalar ws4_network.node[8].content_store 	decision_no[8] 	11956
scalar ws4_network.node[8].content_store 	decision_ratio[8] 	0.0056553559547572
scalar ws4_network.node[8].content_store 	correction_factor[8] 	0.027225701061802
scalar ws4_network.node[8].content_store 	kappa[8] 	1
scalar ws4_network.node[9].core_layer 	interests[9] 	8412
scalar ws4_network.node[9].core_layer 	data[9] 	8101
scalar ws4_network.node[9].content_store 	p_hit[9] 	0.033285782215882
scalar ws4_network.node[9].content_store 	hits[9] 	280
scalar ws4_network.node[9].content_store 	misses[9] 	8132
scalar ws4_network.node[9].content_store 	decision_yes[9] 	1791
scalar ws4_network.node[9].content_store 	decision_no[9] 	6310
scalar ws4_network.node[9].content_store 	decision_ratio[9] 	0.22108381681274
scalar ws4_network.node[9].content_store 	correction_factor[9] 	0.027225701061802
scalar ws4_network.node[9].content_store 	kappa[9] 	1
scalar ws4_network.node[10].core_layer 	interests[10] 	8101
scalar ws4_network.node[10].core_layer 	repo_load[10] 	6437
scalar ws4_network.node[10].core_layer 	data[10] 	0
scalar ws4_network.node[10].content_store 	p_hit[10] 	0.20540673990865
scalar ws4_network.node[10].content_store 	hits[10] 	1664
scalar ws4_network.node[10].content_store 	misses[10] 	6437
scalar ws4_network.node[10].content_store 	decision_yes[10] 	1745
scalar ws4_network.node[10].content_store 	decision_no[10] 	4692
scalar ws4_network.node[10].content_store 	decision_ratio[10] 	0.27108901662265
scalar ws4_network.node[10].content_store 	correction_factor[10] 	0.027225701061802
scalar ws4_network.node[10].content_store 	kappa[10] 	1
scalar ws4_network.node[11].core_layer 	interests[11] 	0
scalar ws4_network.node[11].core_layer 	data[11] 	0
scalar ws4_network.node[11].content_store 	p_hit[11] 	-nan
scalar ws4_network.node[11].content_store 	hits[11] 	0
scalar ws4_network.node[11].content_store 	misses[11] 	0
scalar ws4_network.node[11].content_store 	decision_yes[11] 	0
scalar ws4_network.node[11].content_store 	decision_no[11] 	0
scalar ws4_network.node[11].content_store 	decision_ratio[11] 	0
scalar ws4_network.node[11].content_store 	correction_factor[11] 	0.027225701061802
scalar ws4_network.node[11].content_store 	kappa[11] 	1
scalar ws4_network.node[12].core_layer 	interests[12] 	0
scalar ws4_network.node[12].core_layer 	data[12] 	0
scalar ws4_network.node[12].content_store 	p_hit[12] 	-nan
scalar ws4_network.node[12].content_store 	hits[12] 	0
scalar ws4_network.node[12].content_store 	misses[12] 	0
scalar ws4_network.node[12].content_store 	decision_yes[12] 	0
scalar ws4_network.node[12].content_store 	decision_no[12] 	0
scalar ws4_network.node[12].content_store 	decision_ratio[12] 	0
scalar ws4_network.node[12].content_store 	correction_factor[12] 	0.027225701061802
scalar ws4_network.node[12].content_store 	kappa[12] 	1
scalar ws4_network.node[13].core_layer 	interests[13] 	0
scalar ws4_network.node[13].core_layer 	data[13] 	0
scalar ws4_network.node[13].content_store 	p_hit[13] 	-nan
scalar ws4_network.node[13].content_store 	hits[13] 	0
scalar ws4_network.node[13].content_store 	misses[13] 	0
scalar ws4_network.node[13].content_store 	decision_yes[13] 	0
scalar ws4_network.node[13].content_store 	decision_no[13] 	0
scalar ws4_network.node[13].content_store 	decision_ratio[13] 	0
scalar ws4_network.node[13].content_store 	correction_factor[13] 	0.027225701061802
scalar ws4_network.node[13].content_store 	kappa[13] 	1
scalar ws4_network.node[14].core_layer 	interests[14] 	0
scalar ws4_network.node[14].core_layer 	data[14] 	0
scalar ws4_network.node[14].content_store 	p_hit[14] 	-nan
scalar ws4_network.node[14].content_store 	hits[14] 	0
scalar ws4_network.node[14].content_store 	misses[14] 	0
scalar ws4_network.node[14].content_store 	decision_yes[14] 	0
scalar ws4_network.node[14].content_store 	decision_no[14] 	0
scalar ws4_network.node[14].content_store 	decision_ratio[14] 	0
scalar ws4_network.node[14].content_store 	correction_factor[14] 	0.027225701061802
scalar ws4_network.node[14].content_store 	kappa[14] 	1
scalar ws4_network.node[15].core_layer 	interests[15] 	0
scalar ws4_network.node[15].core_layer 	data[15] 	0
scalar ws4_network.node[15].content_store 	p_hit[15] 	-nan
scalar ws4_network.node[15].content_store 	hits[15] 	0
scalar ws4_network.node[15].content_store 	misses[15] 	0
scalar ws4_network.node[15].content_store 	decision_yes[15] 	0
scalar ws4_network.node[15].content_store 	decision_no[15] 	0
scalar ws4_network.node[15].content_store 	decision_ratio[15] 	0
scalar ws4_network.node[15].content_store 	correction_factor[15] 	0.027225701061802
scalar ws4_network.node[15].content_store 	kappa[15] 	1
scalar ws4_network.node[16].core_layer 	interests[16] 	8684
scalar ws4_network.node[16].core_layer 	repo_load[16] 	6919
scalar ws4_network.node[16].core_layer 	data[16] 	149
scalar ws4_network.node[16].content_store 	p_hit[16] 	0.18608935974205
scalar ws4_network.node[16].content_store 	hits[16] 	1616
scalar ws4_network.node[16].content_store 	misses[16] 	7068
scalar ws4_network.node[16].content_store 	decision_yes[16] 	187
scalar ws4_network.node[16].content_store 	decision_no[16] 	6881
scalar ws4_network.node[16].content_store 	decision_ratio[16] 	0.02645727221279
scalar ws4_network.node[16].content_store 	correction_factor[16] 	0.027225701061802
scalar ws4_network.node[16].content_store 	kappa[16] 	1
scalar ws4_network.node[17].core_layer 	interests[17] 	0
scalar ws4_network.node[17].core_layer 	data[17] 	0
scalar ws4_network.node[17].content_store 	p_hit[17] 	-nan
scalar ws4_network.node[17].content_store 	hits[17] 	0
scalar ws4_network.node[17].content_store 	misses[17] 	0
scalar ws4_network.node[17].content_store 	decision_yes[17] 	0
scalar ws4_network.node[17].content_store 	decision_no[17] 	0
scalar ws4_network.node[17].content_store 	decision_ratio[17] 	0
scalar ws4_network.node[17].content_store 	correction_factor[17] 	0.027225701061802
scalar ws4_network.node[17].content_store 	kappa[17] 	1
scalar ws4_network.node[18].core_layer 	interests[18] 	12260
scalar ws4_network.node[18].core_layer 	repo_load[18] 	12260
scalar ws4_network.node[18].core_layer 	data[18] 	0
scalar ws4_network.node[18].content_store 	p_hit[18] 	0
scalar ws4_network.node[18].content_store 	hits[18] 	0
scalar ws4_network.node[18].content_store 	misses[18] 	12260
scalar ws4_network.node[18].content_store 	decision_yes[18] 	0
scalar ws4_network.node[18].content_store 	decision_no[18] 	12260
scalar ws4_network.node[18].content_store 	decision_ratio[18] 	0
scalar ws4_network.node[18].content_store 	correction_factor[18] 	0.027225701061802
scalar ws4_network.node[18].content_store 	kappa[18] 	1
scalar ws4_network.node[19].core_layer 	interests[19] 	0
scalar ws4_network.node[19].core_layer 	data[19] 	0
scalar ws4_network.node[19].content_store 	p_hit[19] 	-nan
scalar ws4_network.node[19].content_store 	hits[19] 	0
scalar ws4_network.node[19].content_store 	misses[19] 	0
scalar ws4_network.node[19].content_store 	decision_yes[19] 	0
scalar ws4_network.node[19].content_store 	decision_no[19] 	0
scalar ws4_network.node[19].content_store 	decision_ratio[19] 	0
scalar ws4_network.node[19].content_store 	correction_factor[19] 	0.027225701061802
scalar ws4_network.node[19].content_store 	kappa[19] 	1
scalar ws4_network.node[20].core_layer 	interests[20] 	12785
scalar ws4_network.node[20].core_layer 	data[20] 	11922
scalar ws4_network.node[20].content_store 	p_hit[20] 	0.059053578412202
scalar ws4_network.node[20].content_store 	hits[20] 	755
scalar ws4_network.node[20].content_store 	misses[20] 	12030
scalar ws4_network.node[20].content_store 	decision_yes[20] 	665
scalar ws4_network.node[20].content_store 	decision_no[20] 	11257
scalar ws4_network.node[20].content_store 	decision_ratio[20] 	0.055779231672538
scalar ws4_network.node[20].content_store 	correction_factor[20] 	0.027225701061802
scalar ws4_network.node[20].content_store 	kappa[20] 	1
scalar ws4_network.node[21].core_layer 	interests[21] 	0
scalar ws4_network.node[21].core_layer 	data[21] 	0
scalar ws4_network.node[21].content_store 	p_hit[21] 	-nan
scalar ws4_network.node[21].content_store 	hits[21] 	0
scalar ws4_network.node[21].content_store 	misses[21] 	0
scalar ws4_network.node[21].content_store 	decision_yes[21] 	0
scalar ws4_network.node[21].content_store 	decision_no[21] 	0
scalar ws4_network.node[21].content_store 	decision_ratio[21] 	0
scalar ws4_network.node[21].content_store 	correction_factor[21] 	0.027225701061802
scalar ws4_network.node[21].content_store 	kappa[21] 	1
scalar ws4_network.client[2] 	hdistance[2] 	2.8290373054435
scalar ws4_network.client[2] 	downloads[2] 	12143
scalar ws4_network.client[2] 	avg_time[2] 	0.010975674141
scalar ws4_network.client[2] 	interests_sent[2] 	12287
scalar ws4_network.client[6] 	hdistance[6] 	3.0419215398418
scalar ws4_network.client[6] 	downloads[6] 	12261
scalar ws4_network.client[6] 	avg_time[6] 	0.012036774431
scalar ws4_network.client[6] 	interests_sent[6] 	12399
scalar ws4_network.client[20] 	hdistance[20] 	2.5994588389636
scalar ws4_network.client[20] 	downloads[20] 	12196
scalar ws4_network.client[20] 	avg_time[20] 	0.009752294198
scalar ws4_network.client[20] 	interests_sent[20] 	12304
