version 2
run General-3-20140618-15:32:53-16761
attr D fix0.005
attr F spr
attr R lru
attr a 1
attr configname General
attr csize 1e3
attr ctlg 1e5
attr datetime 20140618-15:32:53
attr experiment General
attr inifile omnetpp.ini
attr iterationvars "$net=abilene_cost, $rep=1, $priceratiovalue=10, $weights=0.333_0.333_0.334, $lambda=100, $a=1, $ctlg=1e5, $F=spr, $ttl=1000, $D=fix0.005, $xi=1, $R=lru, $csize=1e3, $pricebits=0, $mytime=1800"
attr iterationvars2 "$net=abilene_cost, $rep=1, $priceratiovalue=10, $weights=0.333_0.333_0.334, $lambda=100, $a=1, $ctlg=1e5, $F=spr, $ttl=1000, $D=fix0.005, $xi=1, $R=lru, $csize=1e3, $pricebits=0, $mytime=1800, $repetition=0"
attr lambda 100
attr measurement "$net=abilene_cost, $rep=1, $priceratiovalue=10, $weights=0.333_0.333_0.334, $lambda=100, $a=1, $ctlg=1e5, $F=spr, $ttl=1000, $D=fix0.005, $xi=1, $R=lru, $csize=1e3, $pricebits=0, $mytime=1800"
attr mytime 1800
attr net abilene_cost
attr network networks.${net=abilene_cost}_network
attr pricebits 0
attr priceratiovalue 10
attr processid 16761
attr rep 1
attr repetition 0
attr replication #0
attr resultdir results
attr runnumber 3
attr seedset 1
attr ttl 1000
attr weights 0.333_0.333_0.334
attr xi 1

scalar . 	a 	1
scalar . 	csize 	1e3
scalar . 	ctlg 	1e5
scalar . 	lambda 	100
scalar . 	mytime 	1800
scalar . 	pricebits 	0
scalar . 	priceratiovalue 	10
scalar . 	rep 	1
scalar . 	ttl 	1000
scalar . 	xi 	1
scalar abilene_cost_network.content_distribution 	repo-0 	11
scalar abilene_cost_network.content_distribution 	repo-1 	12
scalar abilene_cost_network.content_distribution 	repo-2 	13
scalar abilene_cost_network.content_distribution 	client-0 	3
scalar abilene_cost_network.content_distribution 	client-1 	7
scalar abilene_cost_network.content_distribution 	client-2 	10
scalar abilene_cost_network.content_distribution 	repo-0_card 	33396
scalar abilene_cost_network.content_distribution 	repo-1_card 	33039
scalar abilene_cost_network.content_distribution 	repo-2_card 	33565
scalar abilene_cost_network.statistics 	repo_popularity[0] 	0.28686251265602
scalar abilene_cost_network.statistics 	repo_popularity[1] 	0.2886063426465
scalar abilene_cost_network.statistics 	repo_popularity[2] 	0.42453114469748
scalar abilene_cost_network.statistics 	stabilization_time 	961.8
scalar abilene_cost_network.node[0].face$o[3].channel 	price[0] 	0
scalar abilene_cost_network.node[0].face$o[3].channel 	represented_price[0] 	0
scalar abilene_cost_network.node[5].face$o[3].channel 	price[5] 	0
scalar abilene_cost_network.node[5].face$o[3].channel 	represented_price[5] 	0
scalar abilene_cost_network.node[9].face$o[3].channel 	price[9] 	0
scalar abilene_cost_network.node[9].face$o[3].channel 	represented_price[9] 	0
scalar abilene_cost_network.node[11].face$o[1].channel 	price[11] 	0
scalar abilene_cost_network.node[11].face$o[1].channel 	represented_price[11] 	0
scalar abilene_cost_network.node[12].face$o[1].channel 	price[12] 	1
scalar abilene_cost_network.node[12].face$o[1].channel 	represented_price[12] 	1
scalar abilene_cost_network.node[13].face$o[1].channel 	price[13] 	10
scalar abilene_cost_network.node[13].face$o[1].channel 	represented_price[13] 	10
scalar abilene_cost_network.statistics 	p_hit 	0.17598183711737
scalar abilene_cost_network.statistics 	inner_hit 	inf
scalar abilene_cost_network.statistics 	interests 	112411.35714286
scalar abilene_cost_network.statistics 	data 	73922
scalar abilene_cost_network.statistics 	hdistance 	2.4063539171176
scalar abilene_cost_network.statistics 	avg_time 	0
scalar abilene_cost_network.statistics 	downloads 	538851
scalar abilene_cost_network.statistics 	total_cost 	984427
scalar abilene_cost_network.statistics 	total_replicas 	100000
scalar abilene_cost_network.statistics 	interests_sent 	538851
scalar abilene_cost_network.node[0].core_layer 	interests[0] 	99231
scalar abilene_cost_network.node[0].core_layer 	data[0] 	88929
scalar abilene_cost_network.node[0].core_layer 	repo_int[0] 	261898
scalar abilene_cost_network.node[0].content_store 	p_hit[0] 	0.10381836321311
scalar abilene_cost_network.node[0].content_store 	hits[0] 	10302
scalar abilene_cost_network.node[0].content_store 	misses[0] 	88929
scalar abilene_cost_network.node[0].content_store 	decision_yes[0] 	435
scalar abilene_cost_network.node[0].content_store 	decision_no[0] 	88494
scalar abilene_cost_network.node[0].content_store 	decision_ratio[0] 	0.0048915426913605
scalar abilene_cost_network.node[1].core_layer 	interests[1] 	70310
scalar abilene_cost_network.node[1].core_layer 	data[1] 	63785
scalar abilene_cost_network.node[1].content_store 	p_hit[1] 	0.092803299672877
scalar abilene_cost_network.node[1].content_store 	hits[1] 	6525
scalar abilene_cost_network.node[1].content_store 	misses[1] 	63785
scalar abilene_cost_network.node[1].content_store 	decision_yes[1] 	307
scalar abilene_cost_network.node[1].content_store 	decision_no[1] 	63478
scalar abilene_cost_network.node[1].content_store 	decision_ratio[1] 	0.0048130438190797
scalar abilene_cost_network.node[2].core_layer 	interests[2] 	68753
scalar abilene_cost_network.node[2].core_layer 	data[2] 	64266
scalar abilene_cost_network.node[2].content_store 	p_hit[2] 	0.065262606722616
scalar abilene_cost_network.node[2].content_store 	hits[2] 	4487
scalar abilene_cost_network.node[2].content_store 	misses[2] 	64266
scalar abilene_cost_network.node[2].content_store 	decision_yes[2] 	331
scalar abilene_cost_network.node[2].content_store 	decision_no[2] 	63935
scalar abilene_cost_network.node[2].content_store 	decision_ratio[2] 	0.0051504683658544
scalar abilene_cost_network.node[3].core_layer 	interests[3] 	210107
scalar abilene_cost_network.node[3].core_layer 	data[3] 	138810
scalar abilene_cost_network.node[3].content_store 	p_hit[3] 	0.33933662372029
scalar abilene_cost_network.node[3].content_store 	hits[3] 	71297
scalar abilene_cost_network.node[3].content_store 	misses[3] 	138810
scalar abilene_cost_network.node[3].content_store 	decision_yes[3] 	712
scalar abilene_cost_network.node[3].content_store 	decision_no[3] 	138098
scalar abilene_cost_network.node[3].content_store 	decision_ratio[3] 	0.0051293134500396
scalar abilene_cost_network.node[4].core_layer 	interests[4] 	64526
scalar abilene_cost_network.node[4].core_layer 	data[4] 	58908
scalar abilene_cost_network.node[4].content_store 	p_hit[4] 	0.08706567895112
scalar abilene_cost_network.node[4].content_store 	hits[4] 	5618
scalar abilene_cost_network.node[4].content_store 	misses[4] 	58908
scalar abilene_cost_network.node[4].content_store 	decision_yes[4] 	278
scalar abilene_cost_network.node[4].content_store 	decision_no[4] 	58630
scalar abilene_cost_network.node[4].content_store 	decision_ratio[4] 	0.0047192231954913
scalar abilene_cost_network.node[5].core_layer 	interests[5] 	92036
scalar abilene_cost_network.node[5].core_layer 	data[5] 	82807
scalar abilene_cost_network.node[5].content_store 	p_hit[5] 	0.10027597896475
scalar abilene_cost_network.node[5].content_store 	hits[5] 	9229
scalar abilene_cost_network.node[5].content_store 	misses[5] 	82807
scalar abilene_cost_network.node[5].content_store 	decision_yes[5] 	394
scalar abilene_cost_network.node[5].content_store 	decision_no[5] 	82413
scalar abilene_cost_network.node[5].content_store 	decision_ratio[5] 	0.0047580518555195
scalar abilene_cost_network.node[6].core_layer 	interests[6] 	37251
scalar abilene_cost_network.node[6].core_layer 	data[6] 	33128
scalar abilene_cost_network.node[6].content_store 	p_hit[6] 	0.11068159244047
scalar abilene_cost_network.node[6].content_store 	hits[6] 	4123
scalar abilene_cost_network.node[6].content_store 	misses[6] 	33128
scalar abilene_cost_network.node[6].content_store 	decision_yes[6] 	168
scalar abilene_cost_network.node[6].content_store 	decision_no[6] 	32960
scalar abilene_cost_network.node[6].content_store 	decision_ratio[6] 	0.0050712388312002
scalar abilene_cost_network.node[7].core_layer 	interests[7] 	217168
scalar abilene_cost_network.node[7].core_layer 	data[7] 	143175
scalar abilene_cost_network.node[7].content_store 	p_hit[7] 	0.34071778530907
scalar abilene_cost_network.node[7].content_store 	hits[7] 	73993
scalar abilene_cost_network.node[7].content_store 	misses[7] 	143175
scalar abilene_cost_network.node[7].content_store 	decision_yes[7] 	717
scalar abilene_cost_network.node[7].content_store 	decision_no[7] 	142458
scalar abilene_cost_network.node[7].content_store 	decision_ratio[7] 	0.0050078575170246
scalar abilene_cost_network.node[8].core_layer 	interests[8] 	105924
scalar abilene_cost_network.node[8].core_layer 	data[8] 	98153
scalar abilene_cost_network.node[8].content_store 	p_hit[8] 	0.073363921302066
scalar abilene_cost_network.node[8].content_store 	hits[8] 	7771
scalar abilene_cost_network.node[8].content_store 	misses[8] 	98153
scalar abilene_cost_network.node[8].content_store 	decision_yes[8] 	478
scalar abilene_cost_network.node[8].content_store 	decision_no[8] 	97675
scalar abilene_cost_network.node[8].content_store 	decision_ratio[8] 	0.0048699479384227
scalar abilene_cost_network.node[9].core_layer 	interests[9] 	134798
scalar abilene_cost_network.node[9].core_layer 	data[9] 	122936
scalar abilene_cost_network.node[9].content_store 	p_hit[9] 	0.087998338254277
scalar abilene_cost_network.node[9].content_store 	hits[9] 	11862
scalar abilene_cost_network.node[9].content_store 	misses[9] 	122936
scalar abilene_cost_network.node[9].content_store 	decision_yes[9] 	605
scalar abilene_cost_network.node[9].content_store 	decision_no[9] 	122331
scalar abilene_cost_network.node[9].content_store 	decision_ratio[9] 	0.0049212598425197
scalar abilene_cost_network.node[10].core_layer 	interests[10] 	211757
scalar abilene_cost_network.node[10].core_layer 	data[10] 	140011
scalar abilene_cost_network.node[10].content_store 	p_hit[10] 	0.33881288457997
scalar abilene_cost_network.node[10].content_store 	hits[10] 	71746
scalar abilene_cost_network.node[10].content_store 	misses[10] 	140011
scalar abilene_cost_network.node[10].content_store 	decision_yes[10] 	684
scalar abilene_cost_network.node[10].content_store 	decision_no[10] 	139327
scalar abilene_cost_network.node[10].content_store 	decision_ratio[10] 	0.0048853304383227
scalar abilene_cost_network.node[11].core_layer 	interests[11] 	88929
scalar abilene_cost_network.node[11].core_layer 	repo_load[11] 	88929
scalar abilene_cost_network.node[11].core_layer 	data[11] 	0
scalar abilene_cost_network.node[11].content_store 	p_hit[11] 	0
scalar abilene_cost_network.node[11].content_store 	hits[11] 	0
scalar abilene_cost_network.node[11].content_store 	misses[11] 	88929
scalar abilene_cost_network.node[11].content_store 	decision_yes[11] 	0
scalar abilene_cost_network.node[11].content_store 	decision_no[11] 	88929
scalar abilene_cost_network.node[11].content_store 	decision_ratio[11] 	0
scalar abilene_cost_network.node[12].core_layer 	interests[12] 	82807
scalar abilene_cost_network.node[12].core_layer 	repo_load[12] 	82807
scalar abilene_cost_network.node[12].core_layer 	data[12] 	0
scalar abilene_cost_network.node[12].content_store 	p_hit[12] 	0
scalar abilene_cost_network.node[12].content_store 	hits[12] 	0
scalar abilene_cost_network.node[12].content_store 	misses[12] 	82807
scalar abilene_cost_network.node[12].content_store 	decision_yes[12] 	0
scalar abilene_cost_network.node[12].content_store 	decision_no[12] 	82807
scalar abilene_cost_network.node[12].content_store 	decision_ratio[12] 	0
scalar abilene_cost_network.node[13].core_layer 	interests[13] 	90162
scalar abilene_cost_network.node[13].core_layer 	repo_load[13] 	90162
scalar abilene_cost_network.node[13].core_layer 	data[13] 	0
scalar abilene_cost_network.node[13].content_store 	p_hit[13] 	0
scalar abilene_cost_network.node[13].content_store 	hits[13] 	0
scalar abilene_cost_network.node[13].content_store 	misses[13] 	90162
scalar abilene_cost_network.node[13].content_store 	decision_yes[13] 	0
scalar abilene_cost_network.node[13].content_store 	decision_no[13] 	90162
scalar abilene_cost_network.node[13].content_store 	decision_ratio[13] 	0
scalar abilene_cost_network.client[3] 	hdistance[3] 	2.4691838299859
scalar abilene_cost_network.client[3] 	downloads[3] 	179938
scalar abilene_cost_network.client[3] 	avg_time[3] 	0
scalar abilene_cost_network.client[3] 	interests_sent[3] 	179938
scalar abilene_cost_network.client[7] 	hdistance[7] 	2.4906019007391
scalar abilene_cost_network.client[7] 	downloads[7] 	179930
scalar abilene_cost_network.client[7] 	avg_time[7] 	0
scalar abilene_cost_network.client[7] 	interests_sent[7] 	179930
scalar abilene_cost_network.client[10] 	hdistance[10] 	2.2592760206277
scalar abilene_cost_network.client[10] 	downloads[10] 	178983
scalar abilene_cost_network.client[10] 	avg_time[10] 	0
scalar abilene_cost_network.client[10] 	interests_sent[10] 	178983
