version 2
run General-135-20140501-21:45:05-7753
attr D fix0.005
attr F nrr
attr R lru
attr a 1
attr configname General
attr csize 1e3
attr ctlg 1e5
attr datetime 20140501-21:45:05
attr experiment General
attr inifile omnetpp.ini
attr iterationvars "$net=one_cache_scenario_3_links, $rep=1, $priceratiovalue=2, $weights=0.2_0.4_0.4, $a=1, $ctlg=1e5, $F=nrr, $ttl=1000, $D=fix0.005, $xi=1, $R=lru, $csize=1e3"
attr iterationvars2 "$net=one_cache_scenario_3_links, $rep=1, $priceratiovalue=2, $weights=0.2_0.4_0.4, $a=1, $ctlg=1e5, $F=nrr, $ttl=1000, $D=fix0.005, $xi=1, $R=lru, $csize=1e3, $repetition=0"
attr measurement "$net=one_cache_scenario_3_links, $rep=1, $priceratiovalue=2, $weights=0.2_0.4_0.4, $a=1, $ctlg=1e5, $F=nrr, $ttl=1000, $D=fix0.005, $xi=1, $R=lru, $csize=1e3"
attr net one_cache_scenario_3_links
attr network networks.${net=one_cache_scenario_3_links}_network
attr priceratiovalue 2
attr processid 7753
attr rep 1
attr repetition 0
attr replication #0
attr resultdir results
attr runnumber 135
attr seedset 1
attr ttl 1000
attr weights 0.2_0.4_0.4
attr xi 1

scalar . 	a 	1
scalar . 	csize 	1e3
scalar . 	ctlg 	1e5
scalar . 	priceratiovalue 	2
scalar . 	rep 	1
scalar . 	ttl 	1000
scalar . 	xi 	1
scalar one_cache_scenario_3_links_network.content_distribution 	repo-0 	4
scalar one_cache_scenario_3_links_network.content_distribution 	repo-1 	5
scalar one_cache_scenario_3_links_network.content_distribution 	repo-2 	6
scalar one_cache_scenario_3_links_network.content_distribution 	client-0 	0
scalar one_cache_scenario_3_links_network.content_distribution 	repo-0_card 	19939
scalar one_cache_scenario_3_links_network.content_distribution 	repo-1_card 	40008
scalar one_cache_scenario_3_links_network.content_distribution 	repo-2_card 	40053
scalar one_cache_scenario_3_links_network.statistics 	p_hit 	0.26954076530569
scalar one_cache_scenario_3_links_network.statistics 	interests 	50142.428571429
scalar one_cache_scenario_3_links_network.statistics 	data 	24418
scalar one_cache_scenario_3_links_network.statistics 	hdistance 	0.94921447651204
scalar one_cache_scenario_3_links_network.statistics 	avg_time 	0
scalar one_cache_scenario_3_links_network.statistics 	downloads 	180071
scalar one_cache_scenario_3_links_network.statistics 	total_cost 	102746
scalar one_cache_scenario_3_links_network.statistics 	total_replicas 	100000
scalar one_cache_scenario_3_links_network.statistics 	interests_sent 	180071
scalar one_cache_scenario_3_links_network.node[0].core_layer 	interests[0] 	180071
scalar one_cache_scenario_3_links_network.node[0].core_layer 	data[0] 	85463
scalar one_cache_scenario_3_links_network.node[0].core_layer 	repo_int[0] 	85463
scalar one_cache_scenario_3_links_network.node[0].content_store 	p_hit[0] 	0.52539276174398
scalar one_cache_scenario_3_links_network.node[0].content_store 	hits[0] 	94608
scalar one_cache_scenario_3_links_network.node[0].content_store 	misses[0] 	85463
scalar one_cache_scenario_3_links_network.node[0].content_store 	decision_yes[0] 	406
scalar one_cache_scenario_3_links_network.node[0].content_store 	decision_no[0] 	85057
scalar one_cache_scenario_3_links_network.node[1].core_layer 	interests[1] 	16956
scalar one_cache_scenario_3_links_network.node[1].core_layer 	data[1] 	16956
scalar one_cache_scenario_3_links_network.node[1].content_store 	p_hit[1] 	0
scalar one_cache_scenario_3_links_network.node[1].content_store 	hits[1] 	0
scalar one_cache_scenario_3_links_network.node[1].content_store 	misses[1] 	16956
scalar one_cache_scenario_3_links_network.node[1].content_store 	decision_yes[1] 	0
scalar one_cache_scenario_3_links_network.node[1].content_store 	decision_no[1] 	16956
scalar one_cache_scenario_3_links_network.node[2].core_layer 	interests[2] 	34268
scalar one_cache_scenario_3_links_network.node[2].core_layer 	data[2] 	34268
scalar one_cache_scenario_3_links_network.node[2].content_store 	p_hit[2] 	0
scalar one_cache_scenario_3_links_network.node[2].content_store 	hits[2] 	0
scalar one_cache_scenario_3_links_network.node[2].content_store 	misses[2] 	34268
scalar one_cache_scenario_3_links_network.node[2].content_store 	decision_yes[2] 	0
scalar one_cache_scenario_3_links_network.node[2].content_store 	decision_no[2] 	34268
scalar one_cache_scenario_3_links_network.node[3].core_layer 	interests[3] 	34239
scalar one_cache_scenario_3_links_network.node[3].core_layer 	data[3] 	34239
scalar one_cache_scenario_3_links_network.node[3].content_store 	p_hit[3] 	0
scalar one_cache_scenario_3_links_network.node[3].content_store 	hits[3] 	0
scalar one_cache_scenario_3_links_network.node[3].content_store 	misses[3] 	34239
scalar one_cache_scenario_3_links_network.node[3].content_store 	decision_yes[3] 	0
scalar one_cache_scenario_3_links_network.node[3].content_store 	decision_no[3] 	34239
scalar one_cache_scenario_3_links_network.node[4].core_layer 	interests[4] 	16956
scalar one_cache_scenario_3_links_network.node[4].core_layer 	repo_load[4] 	16956
scalar one_cache_scenario_3_links_network.node[4].core_layer 	data[4] 	0
scalar one_cache_scenario_3_links_network.node[4].content_store 	p_hit[4] 	0
scalar one_cache_scenario_3_links_network.node[4].content_store 	hits[4] 	0
scalar one_cache_scenario_3_links_network.node[4].content_store 	misses[4] 	16956
scalar one_cache_scenario_3_links_network.node[4].content_store 	decision_yes[4] 	0
scalar one_cache_scenario_3_links_network.node[4].content_store 	decision_no[4] 	16956
scalar one_cache_scenario_3_links_network.node[5].core_layer 	interests[5] 	34268
scalar one_cache_scenario_3_links_network.node[5].core_layer 	repo_load[5] 	34268
scalar one_cache_scenario_3_links_network.node[5].core_layer 	data[5] 	0
scalar one_cache_scenario_3_links_network.node[5].content_store 	p_hit[5] 	0
scalar one_cache_scenario_3_links_network.node[5].content_store 	hits[5] 	0
scalar one_cache_scenario_3_links_network.node[5].content_store 	misses[5] 	34268
scalar one_cache_scenario_3_links_network.node[5].content_store 	decision_yes[5] 	0
scalar one_cache_scenario_3_links_network.node[5].content_store 	decision_no[5] 	34268
scalar one_cache_scenario_3_links_network.node[6].core_layer 	interests[6] 	34239
scalar one_cache_scenario_3_links_network.node[6].core_layer 	repo_load[6] 	34239
scalar one_cache_scenario_3_links_network.node[6].core_layer 	data[6] 	0
scalar one_cache_scenario_3_links_network.node[6].content_store 	p_hit[6] 	0
scalar one_cache_scenario_3_links_network.node[6].content_store 	hits[6] 	0
scalar one_cache_scenario_3_links_network.node[6].content_store 	misses[6] 	34239
scalar one_cache_scenario_3_links_network.node[6].content_store 	decision_yes[6] 	0
scalar one_cache_scenario_3_links_network.node[6].content_store 	decision_no[6] 	34239
scalar one_cache_scenario_3_links_network.client[0] 	hdistance[0] 	0.94921447651204
scalar one_cache_scenario_3_links_network.client[0] 	downloads[0] 	180071
scalar one_cache_scenario_3_links_network.client[0] 	avg_time[0] 	0
scalar one_cache_scenario_3_links_network.client[0] 	interests_sent[0] 	180071
