version 2
run General-217-20140418-15:24:48-1806
attr D fix0.1
attr F nrr
attr R lru
attr a 0.8
attr configname General
attr csize 10
attr ctlg 10^6
attr datetime 20140418-15:24:48
attr experiment General
attr inifile omnetpp.ini
attr iterationvars "$net=simple_scenario, $rep=1, $priceratiovalue=10, $a=0.8, $ctlg=10^6, $F=nrr, $ttl=1000, $D=fix0.1, $R=lru, $csize=10"
attr iterationvars2 "$net=simple_scenario, $rep=1, $priceratiovalue=10, $a=0.8, $ctlg=10^6, $F=nrr, $ttl=1000, $D=fix0.1, $R=lru, $csize=10, $repetition=0"
attr measurement "$net=simple_scenario, $rep=1, $priceratiovalue=10, $a=0.8, $ctlg=10^6, $F=nrr, $ttl=1000, $D=fix0.1, $R=lru, $csize=10"
attr net simple_scenario
attr network networks.${net=simple_scenario}_network
attr priceratiovalue 10
attr processid 1806
attr rep 1
attr repetition 0
attr replication #0
attr resultdir results
attr runnumber 217
attr seedset 1
attr ttl 1000

scalar . 	a 	0.8
scalar . 	csize 	10
scalar . 	priceratiovalue 	10
scalar . 	rep 	1
scalar . 	ttl 	1000
scalar simple_scenario_network.content_distribution 	repo-0 	3
scalar simple_scenario_network.content_distribution 	repo-1 	4
scalar simple_scenario_network.content_distribution 	client-0 	0
scalar simple_scenario_network.content_distribution 	repo-0_card 	500011
scalar simple_scenario_network.content_distribution 	repo-1_card 	499989
scalar simple_scenario_network.statistics 	p_hit 	0.0046580929942356
scalar simple_scenario_network.statistics 	interests 	107383
scalar simple_scenario_network.statistics 	data 	71356.8
scalar simple_scenario_network.statistics 	hdistance 	2.9668073058346
scalar simple_scenario_network.statistics 	avg_time 	0.001999924565
scalar simple_scenario_network.statistics 	downloads 	180130
scalar simple_scenario_network.statistics 	total_cost 	89530
scalar simple_scenario_network.node[0].core_layer 	interests[0] 	180131
scalar simple_scenario_network.node[0].core_layer 	data[0] 	179154
scalar simple_scenario_network.node[0].core_layer 	repo_int[0] 	177630
scalar simple_scenario_network.node[0].content_store 	p_hit[0] 	0.0054238304345171
scalar simple_scenario_network.node[0].content_store 	hits[0] 	977
scalar simple_scenario_network.node[0].content_store 	misses[0] 	179154
scalar simple_scenario_network.node[1].core_layer 	interests[1] 	88268
scalar simple_scenario_network.node[1].core_layer 	data[1] 	87940
scalar simple_scenario_network.node[1].content_store 	p_hit[1] 	0.003715955952327
scalar simple_scenario_network.node[1].content_store 	hits[1] 	328
scalar simple_scenario_network.node[1].content_store 	misses[1] 	87940
scalar simple_scenario_network.node[2].core_layer 	interests[2] 	90886
scalar simple_scenario_network.node[2].core_layer 	data[2] 	89690
scalar simple_scenario_network.node[2].content_store 	p_hit[2] 	0.013159342472988
scalar simple_scenario_network.node[2].content_store 	hits[2] 	1196
scalar simple_scenario_network.node[2].content_store 	misses[2] 	89690
scalar simple_scenario_network.node[3].core_layer 	interests[3] 	87940
scalar simple_scenario_network.node[3].core_layer 	repo_load[3] 	87940
scalar simple_scenario_network.node[3].core_layer 	data[3] 	0
scalar simple_scenario_network.node[3].content_store 	p_hit[3] 	0
scalar simple_scenario_network.node[3].content_store 	hits[3] 	0
scalar simple_scenario_network.node[3].content_store 	misses[3] 	87940
scalar simple_scenario_network.node[4].core_layer 	interests[4] 	89690
scalar simple_scenario_network.node[4].core_layer 	repo_load[4] 	89690
scalar simple_scenario_network.node[4].core_layer 	data[4] 	0
scalar simple_scenario_network.node[4].content_store 	p_hit[4] 	0
scalar simple_scenario_network.node[4].content_store 	hits[4] 	0
scalar simple_scenario_network.node[4].content_store 	misses[4] 	89690
scalar simple_scenario_network.client[0] 	hdistance[0] 	2.9668073058346
scalar simple_scenario_network.client[0] 	downloads[0] 	180130
scalar simple_scenario_network.client[0] 	avg_time[0] 	0.001999924565
