version 2
run General-218-20140502-11:17:30-14467
attr D costprob0.5
attr F nrr
attr R lru
attr a 0.8
attr configname General
attr csize 1e3
attr ctlg 1e5
attr datetime 20140502-11:17:30
attr experiment General
attr inifile omnetpp.ini
attr iterationvars "$net=three_caches_scenario_3_links, $rep=2, $priceratiovalue=5, $weights=0.333_0.333_0.334, $a=0.8, $ctlg=1e5, $F=nrr, $ttl=1000, $D=costprob0.5, $xi=1, $R=lru, $csize=1e3"
attr iterationvars2 "$net=three_caches_scenario_3_links, $rep=2, $priceratiovalue=5, $weights=0.333_0.333_0.334, $a=0.8, $ctlg=1e5, $F=nrr, $ttl=1000, $D=costprob0.5, $xi=1, $R=lru, $csize=1e3, $repetition=0"
attr measurement "$net=three_caches_scenario_3_links, $rep=2, $priceratiovalue=5, $weights=0.333_0.333_0.334, $a=0.8, $ctlg=1e5, $F=nrr, $ttl=1000, $D=costprob0.5, $xi=1, $R=lru, $csize=1e3"
attr net three_caches_scenario_3_links
attr network networks.${net=three_caches_scenario_3_links}_network
attr priceratiovalue 5
attr processid 14467
attr rep 2
attr repetition 0
attr replication #0
attr resultdir results
attr runnumber 218
attr seedset 2
attr ttl 1000
attr weights 0.333_0.333_0.334
attr xi 1

scalar . 	a 	0.8
scalar . 	csize 	1e3
scalar . 	ctlg 	1e5
scalar . 	priceratiovalue 	5
scalar . 	rep 	2
scalar . 	ttl 	1000
scalar . 	xi 	1
scalar three_caches_scenario_3_links_network.content_distribution 	repo-0 	4
scalar three_caches_scenario_3_links_network.content_distribution 	repo-1 	5
scalar three_caches_scenario_3_links_network.content_distribution 	repo-2 	6
scalar three_caches_scenario_3_links_network.content_distribution 	client-0 	0
scalar three_caches_scenario_3_links_network.content_distribution 	repo-0_card 	33264
scalar three_caches_scenario_3_links_network.content_distribution 	repo-1_card 	33272
scalar three_caches_scenario_3_links_network.content_distribution 	repo-2_card 	33464
scalar three_caches_scenario_3_links_network.statistics 	p_hit 	0.045752578544137
scalar three_caches_scenario_3_links_network.statistics 	interests 	72161.428571429
scalar three_caches_scenario_3_links_network.statistics 	data 	46478.285714286
scalar three_caches_scenario_3_links_network.statistics 	hdistance 	2.3331367990121
scalar three_caches_scenario_3_links_network.statistics 	avg_time 	0
scalar three_caches_scenario_3_links_network.statistics 	downloads 	179782
scalar three_caches_scenario_3_links_network.statistics 	total_cost 	288448
scalar three_caches_scenario_3_links_network.statistics 	total_replicas 	100000
scalar three_caches_scenario_3_links_network.statistics 	interests_sent 	179782
scalar three_caches_scenario_3_links_network.node[0].core_layer 	interests[0] 	179782
scalar three_caches_scenario_3_links_network.node[0].core_layer 	data[0] 	168677
scalar three_caches_scenario_3_links_network.node[0].core_layer 	repo_int[0] 	156671
scalar three_caches_scenario_3_links_network.node[0].content_store 	p_hit[0] 	0.061769253874136
scalar three_caches_scenario_3_links_network.node[0].content_store 	hits[0] 	11105
scalar three_caches_scenario_3_links_network.node[0].content_store 	misses[0] 	168677
scalar three_caches_scenario_3_links_network.node[0].content_store 	decision_yes[0] 	60020
scalar three_caches_scenario_3_links_network.node[0].content_store 	decision_no[0] 	108657
scalar three_caches_scenario_3_links_network.node[1].core_layer 	interests[1] 	62563
scalar three_caches_scenario_3_links_network.node[1].core_layer 	data[1] 	62563
scalar three_caches_scenario_3_links_network.node[1].content_store 	p_hit[1] 	0
scalar three_caches_scenario_3_links_network.node[1].content_store 	hits[1] 	0
scalar three_caches_scenario_3_links_network.node[1].content_store 	misses[1] 	62563
scalar three_caches_scenario_3_links_network.node[1].content_store 	decision_yes[1] 	0
scalar three_caches_scenario_3_links_network.node[1].content_store 	decision_no[1] 	62563
scalar three_caches_scenario_3_links_network.node[2].core_layer 	interests[2] 	56112
scalar three_caches_scenario_3_links_network.node[2].core_layer 	data[2] 	45523
scalar three_caches_scenario_3_links_network.node[2].content_store 	p_hit[2] 	0.18871186199031
scalar three_caches_scenario_3_links_network.node[2].content_store 	hits[2] 	10589
scalar three_caches_scenario_3_links_network.node[2].content_store 	misses[2] 	45523
scalar three_caches_scenario_3_links_network.node[2].content_store 	decision_yes[2] 	11356
scalar three_caches_scenario_3_links_network.node[2].content_store 	decision_no[2] 	34167
scalar three_caches_scenario_3_links_network.node[3].core_layer 	interests[3] 	50002
scalar three_caches_scenario_3_links_network.node[3].core_layer 	data[3] 	48585
scalar three_caches_scenario_3_links_network.node[3].content_store 	p_hit[3] 	0.028338866445342
scalar three_caches_scenario_3_links_network.node[3].content_store 	hits[3] 	1417
scalar three_caches_scenario_3_links_network.node[3].content_store 	misses[3] 	48585
scalar three_caches_scenario_3_links_network.node[3].content_store 	decision_yes[3] 	48585
scalar three_caches_scenario_3_links_network.node[3].content_store 	decision_no[3] 	0
scalar three_caches_scenario_3_links_network.node[4].core_layer 	interests[4] 	62563
scalar three_caches_scenario_3_links_network.node[4].core_layer 	repo_load[4] 	62563
scalar three_caches_scenario_3_links_network.node[4].core_layer 	data[4] 	0
scalar three_caches_scenario_3_links_network.node[4].content_store 	p_hit[4] 	0
scalar three_caches_scenario_3_links_network.node[4].content_store 	hits[4] 	0
scalar three_caches_scenario_3_links_network.node[4].content_store 	misses[4] 	62563
scalar three_caches_scenario_3_links_network.node[4].content_store 	decision_yes[4] 	0
scalar three_caches_scenario_3_links_network.node[4].content_store 	decision_no[4] 	62563
scalar three_caches_scenario_3_links_network.node[5].core_layer 	interests[5] 	45523
scalar three_caches_scenario_3_links_network.node[5].core_layer 	repo_load[5] 	45523
scalar three_caches_scenario_3_links_network.node[5].core_layer 	data[5] 	0
scalar three_caches_scenario_3_links_network.node[5].content_store 	p_hit[5] 	0
scalar three_caches_scenario_3_links_network.node[5].content_store 	hits[5] 	0
scalar three_caches_scenario_3_links_network.node[5].content_store 	misses[5] 	45523
scalar three_caches_scenario_3_links_network.node[5].content_store 	decision_yes[5] 	0
scalar three_caches_scenario_3_links_network.node[5].content_store 	decision_no[5] 	45523
scalar three_caches_scenario_3_links_network.node[6].core_layer 	interests[6] 	48585
scalar three_caches_scenario_3_links_network.node[6].core_layer 	repo_load[6] 	48585
scalar three_caches_scenario_3_links_network.node[6].core_layer 	data[6] 	0
scalar three_caches_scenario_3_links_network.node[6].content_store 	p_hit[6] 	0
scalar three_caches_scenario_3_links_network.node[6].content_store 	hits[6] 	0
scalar three_caches_scenario_3_links_network.node[6].content_store 	misses[6] 	48585
scalar three_caches_scenario_3_links_network.node[6].content_store 	decision_yes[6] 	0
scalar three_caches_scenario_3_links_network.node[6].content_store 	decision_no[6] 	48585
scalar three_caches_scenario_3_links_network.client[0] 	hdistance[0] 	2.3331367990121
scalar three_caches_scenario_3_links_network.client[0] 	downloads[0] 	179782
scalar three_caches_scenario_3_links_network.client[0] 	avg_time[0] 	0
scalar three_caches_scenario_3_links_network.client[0] 	interests_sent[0] 	179782
