version 2
run General-1253-20140423-19:03:40-27127
attr D prob_cache
attr F nrr
attr R lru
attr a 1.2
attr configname General
attr csize 2
attr ctlg 10^3
attr datetime 20140423-19:03:40
attr experiment General
attr inifile omnetpp.ini
attr iterationvars "$net=simple_scenario, $rep=4, $priceratiovalue=5, $a=1.2, $ctlg=10^3, $F=nrr, $ttl=1000, $D=prob_cache, $R=lru, $csize=2"
attr iterationvars2 "$net=simple_scenario, $rep=4, $priceratiovalue=5, $a=1.2, $ctlg=10^3, $F=nrr, $ttl=1000, $D=prob_cache, $R=lru, $csize=2, $repetition=0"
attr measurement "$net=simple_scenario, $rep=4, $priceratiovalue=5, $a=1.2, $ctlg=10^3, $F=nrr, $ttl=1000, $D=prob_cache, $R=lru, $csize=2"
attr net simple_scenario
attr network networks.${net=simple_scenario}_network
attr priceratiovalue 5
attr processid 27127
attr rep 4
attr repetition 0
attr replication #0
attr resultdir results
attr runnumber 1253
attr seedset 4
attr ttl 1000

scalar . 	a 	1.2
scalar . 	csize 	2
scalar . 	priceratiovalue 	5
scalar . 	rep 	4
scalar . 	ttl 	1000
scalar simple_scenario_network.content_distribution 	repo-0 	3
scalar simple_scenario_network.content_distribution 	repo-1 	4
scalar simple_scenario_network.content_distribution 	client-0 	0
scalar simple_scenario_network.content_distribution 	repo-0_card 	490
scalar simple_scenario_network.content_distribution 	repo-1_card 	510
scalar simple_scenario_network.statistics 	p_hit 	0.12096797328937
scalar simple_scenario_network.statistics 	interests 	90630.6
scalar simple_scenario_network.statistics 	data 	54567.2
scalar simple_scenario_network.statistics 	hdistance 	2.2090917157467
scalar simple_scenario_network.statistics 	avg_time 	0.001985433656
scalar simple_scenario_network.statistics 	downloads 	180318
scalar simple_scenario_network.statistics 	total_cost 	59543
scalar simple_scenario_network.node[0].core_layer 	interests[0] 	180317
scalar simple_scenario_network.node[0].core_layer 	data[0] 	147336
scalar simple_scenario_network.node[0].core_layer 	repo_int[0] 	125500
scalar simple_scenario_network.node[0].content_store 	p_hit[0] 	0.18290566058663
scalar simple_scenario_network.node[0].content_store 	hits[0] 	32981
scalar simple_scenario_network.node[0].content_store 	misses[0] 	147336
scalar simple_scenario_network.node[1].core_layer 	interests[1] 	82082
scalar simple_scenario_network.node[1].core_layer 	data[1] 	67559
scalar simple_scenario_network.node[1].content_store 	p_hit[1] 	0.17693282327429
scalar simple_scenario_network.node[1].content_store 	hits[1] 	14523
scalar simple_scenario_network.node[1].content_store 	misses[1] 	67559
scalar simple_scenario_network.node[2].core_layer 	interests[2] 	65254
scalar simple_scenario_network.node[2].core_layer 	data[2] 	57941
scalar simple_scenario_network.node[2].content_store 	p_hit[2] 	0.11206975817574
scalar simple_scenario_network.node[2].content_store 	hits[2] 	7313
scalar simple_scenario_network.node[2].content_store 	misses[2] 	57941
scalar simple_scenario_network.node[3].core_layer 	interests[3] 	67559
scalar simple_scenario_network.node[3].core_layer 	repo_load[3] 	67559
scalar simple_scenario_network.node[3].core_layer 	data[3] 	0
scalar simple_scenario_network.node[3].content_store 	p_hit[3] 	0
scalar simple_scenario_network.node[3].content_store 	hits[3] 	0
scalar simple_scenario_network.node[3].content_store 	misses[3] 	67559
scalar simple_scenario_network.node[4].core_layer 	interests[4] 	57941
scalar simple_scenario_network.node[4].core_layer 	repo_load[4] 	57941
scalar simple_scenario_network.node[4].core_layer 	data[4] 	0
scalar simple_scenario_network.node[4].content_store 	p_hit[4] 	0
scalar simple_scenario_network.node[4].content_store 	hits[4] 	0
scalar simple_scenario_network.node[4].content_store 	misses[4] 	57941
scalar simple_scenario_network.client[0] 	hdistance[0] 	2.2090917157467
scalar simple_scenario_network.client[0] 	downloads[0] 	180318
scalar simple_scenario_network.client[0] 	avg_time[0] 	0.001985433656
