version 2
run General-6-20140627-17:29:45-22479
attr D fix0.01
attr F spr
attr R lru
attr a 1
attr configname General
attr csize 1e3
attr ctlg 1e5
attr datetime 20140627-17:29:45
attr experiment General
attr inifile omnetpp.ini
attr iterationvars "$net=geant_cost, $rep=14, $priceratiovalue=10, $weights=0.333_0.333_0.334, $lambda=100, $a=1, $ctlg=1e5, $F=spr, $ttl=1000, $D=fix0.01, $xi=1, $R=lru, $csize=1e3, $pricebits=0, $window=60, $variance=0.05, $mytime=1800"
attr iterationvars2 "$net=geant_cost, $rep=14, $priceratiovalue=10, $weights=0.333_0.333_0.334, $lambda=100, $a=1, $ctlg=1e5, $F=spr, $ttl=1000, $D=fix0.01, $xi=1, $R=lru, $csize=1e3, $pricebits=0, $window=60, $variance=0.05, $mytime=1800, $repetition=0"
attr lambda 100
attr measurement "$net=geant_cost, $rep=14, $priceratiovalue=10, $weights=0.333_0.333_0.334, $lambda=100, $a=1, $ctlg=1e5, $F=spr, $ttl=1000, $D=fix0.01, $xi=1, $R=lru, $csize=1e3, $pricebits=0, $window=60, $variance=0.05, $mytime=1800"
attr mytime 1800
attr net geant_cost
attr network "networks.${net=geant_cost, abilene_cost}_network"
attr pricebits 0
attr priceratiovalue 10
attr processid 22479
attr rep 14
attr repetition 0
attr replication #0
attr resultdir results
attr runnumber 6
attr seedset 14
attr ttl 1000
attr variance 0.05
attr weights 0.333_0.333_0.334
attr window 60
attr xi 1

scalar . 	a 	1
scalar . 	csize 	1e3
scalar . 	ctlg 	1e5
scalar . 	lambda 	100
scalar . 	mytime 	1800
scalar . 	pricebits 	0
scalar . 	priceratiovalue 	10
scalar . 	rep 	14
scalar . 	ttl 	1000
scalar . 	variance 	0.05
scalar . 	window 	60
scalar . 	xi 	1
scalar geant_cost_network.content_distribution 	repo-0 	22
scalar geant_cost_network.content_distribution 	repo-1 	23
scalar geant_cost_network.content_distribution 	repo-2 	24
scalar geant_cost_network.content_distribution 	client-0 	20
scalar geant_cost_network.content_distribution 	client-1 	10
scalar geant_cost_network.content_distribution 	client-2 	12
scalar geant_cost_network.content_distribution 	client-3 	9
scalar geant_cost_network.content_distribution 	client-4 	5
scalar geant_cost_network.content_distribution 	repo-0_card 	32966
scalar geant_cost_network.content_distribution 	repo-1_card 	33555
scalar geant_cost_network.content_distribution 	repo-2_card 	33479
scalar geant_cost_network.statistics 	repo_popularity[0] 	0.41551934442987
scalar geant_cost_network.statistics 	repo_popularity[1] 	0.31847271720617
scalar geant_cost_network.statistics 	repo_popularity[2] 	0.26600793836396
scalar geant_cost_network.statistics 	stabilization_time 	36060
scalar geant_cost_network.node[7].face$o[4].channel 	price[7] 	0
scalar geant_cost_network.node[7].face$o[4].channel 	represented_price[7] 	0
scalar geant_cost_network.node[8].face$o[3].channel 	price[8] 	0
scalar geant_cost_network.node[8].face$o[3].channel 	represented_price[8] 	0
scalar geant_cost_network.node[21].face$o[5].channel 	price[21] 	0
scalar geant_cost_network.node[21].face$o[5].channel 	represented_price[21] 	0
scalar geant_cost_network.node[22].face$o[1].channel 	price[22] 	0
scalar geant_cost_network.node[22].face$o[1].channel 	represented_price[22] 	0
scalar geant_cost_network.node[23].face$o[1].channel 	price[23] 	1
scalar geant_cost_network.node[23].face$o[1].channel 	represented_price[23] 	1
scalar geant_cost_network.node[24].face$o[1].channel 	price[24] 	10
scalar geant_cost_network.node[24].face$o[1].channel 	represented_price[24] 	10
scalar geant_cost_network.statistics 	p_hit 	0.13477213963337
scalar geant_cost_network.statistics 	interests 	117032.2
scalar geant_cost_network.statistics 	data 	80976.68
scalar geant_cost_network.statistics 	hdistance 	2.8089815039752
scalar geant_cost_network.statistics 	avg_time 	0.004239633374
scalar geant_cost_network.statistics 	downloads 	901274
scalar geant_cost_network.statistics 	total_cost 	1864824
scalar geant_cost_network.statistics 	total_replicas 	100000
scalar geant_cost_network.statistics 	inner_hit 	0.4375672658925
scalar geant_cost_network.statistics 	interests_sent 	901388
scalar geant_cost_network.node[0].core_layer 	interests[0] 	0
scalar geant_cost_network.node[0].core_layer 	data[0] 	0
scalar geant_cost_network.node[0].core_layer 	repo_int[0] 	506906
scalar geant_cost_network.node[0].content_store 	p_hit[0] 	-nan
scalar geant_cost_network.node[0].content_store 	hits[0] 	0
scalar geant_cost_network.node[0].content_store 	misses[0] 	0
scalar geant_cost_network.node[0].content_store 	decision_yes[0] 	0
scalar geant_cost_network.node[0].content_store 	decision_no[0] 	0
scalar geant_cost_network.node[0].content_store 	decision_ratio[0] 	0
scalar geant_cost_network.node[1].core_layer 	interests[1] 	0
scalar geant_cost_network.node[1].core_layer 	data[1] 	0
scalar geant_cost_network.node[1].content_store 	p_hit[1] 	-nan
scalar geant_cost_network.node[1].content_store 	hits[1] 	0
scalar geant_cost_network.node[1].content_store 	misses[1] 	0
scalar geant_cost_network.node[1].content_store 	decision_yes[1] 	0
scalar geant_cost_network.node[1].content_store 	decision_no[1] 	0
scalar geant_cost_network.node[1].content_store 	decision_ratio[1] 	0
scalar geant_cost_network.node[2].core_layer 	interests[2] 	0
scalar geant_cost_network.node[2].core_layer 	data[2] 	0
scalar geant_cost_network.node[2].content_store 	p_hit[2] 	-nan
scalar geant_cost_network.node[2].content_store 	hits[2] 	0
scalar geant_cost_network.node[2].content_store 	misses[2] 	0
scalar geant_cost_network.node[2].content_store 	decision_yes[2] 	0
scalar geant_cost_network.node[2].content_store 	decision_no[2] 	0
scalar geant_cost_network.node[2].content_store 	decision_ratio[2] 	0
scalar geant_cost_network.node[3].core_layer 	interests[3] 	158306
scalar geant_cost_network.node[3].core_layer 	data[3] 	146163
scalar geant_cost_network.node[3].content_store 	p_hit[3] 	0.076699556555026
scalar geant_cost_network.node[3].content_store 	hits[3] 	12142
scalar geant_cost_network.node[3].content_store 	misses[3] 	146164
scalar geant_cost_network.node[3].content_store 	decision_yes[3] 	1521
scalar geant_cost_network.node[3].content_store 	decision_no[3] 	144642
scalar geant_cost_network.node[3].content_store 	decision_ratio[3] 	0.010406190349131
scalar geant_cost_network.node[4].core_layer 	interests[4] 	217910
scalar geant_cost_network.node[4].core_layer 	data[4] 	210604
scalar geant_cost_network.node[4].content_store 	p_hit[4] 	0.033527603138911
scalar geant_cost_network.node[4].content_store 	hits[4] 	7306
scalar geant_cost_network.node[4].content_store 	misses[4] 	210604
scalar geant_cost_network.node[4].content_store 	decision_yes[4] 	2145
scalar geant_cost_network.node[4].content_store 	decision_no[4] 	208459
scalar geant_cost_network.node[4].content_store 	decision_ratio[4] 	0.010184991738049
scalar geant_cost_network.node[5].core_layer 	interests[5] 	179959
scalar geant_cost_network.node[5].core_layer 	data[5] 	120013
scalar geant_cost_network.node[5].content_store 	p_hit[5] 	0.33293694674898
scalar geant_cost_network.node[5].content_store 	hits[5] 	59915
scalar geant_cost_network.node[5].content_store 	misses[5] 	120044
scalar geant_cost_network.node[5].content_store 	decision_yes[5] 	1186
scalar geant_cost_network.node[5].content_store 	decision_no[5] 	118827
scalar geant_cost_network.node[5].content_store 	decision_ratio[5] 	0.0098822627548682
scalar geant_cost_network.node[6].core_layer 	interests[6] 	78632
scalar geant_cost_network.node[6].core_layer 	data[6] 	71736
scalar geant_cost_network.node[6].content_store 	p_hit[6] 	0.087699664258826
scalar geant_cost_network.node[6].content_store 	hits[6] 	6896
scalar geant_cost_network.node[6].content_store 	misses[6] 	71736
scalar geant_cost_network.node[6].content_store 	decision_yes[6] 	736
scalar geant_cost_network.node[6].content_store 	decision_no[6] 	71000
scalar geant_cost_network.node[6].content_store 	decision_ratio[6] 	0.010259841641575
scalar geant_cost_network.node[7].core_layer 	interests[7] 	252752
scalar geant_cost_network.node[7].core_layer 	data[7] 	236650
scalar geant_cost_network.node[7].content_store 	p_hit[7] 	0.063694847122871
scalar geant_cost_network.node[7].content_store 	hits[7] 	16099
scalar geant_cost_network.node[7].content_store 	misses[7] 	236653
scalar geant_cost_network.node[7].content_store 	decision_yes[7] 	2321
scalar geant_cost_network.node[7].content_store 	decision_no[7] 	234329
scalar geant_cost_network.node[7].content_store 	decision_ratio[7] 	0.0098077329389394
scalar geant_cost_network.node[8].core_layer 	interests[8] 	263486
scalar geant_cost_network.node[8].core_layer 	data[8] 	245570
scalar geant_cost_network.node[8].content_store 	p_hit[8] 	0.067996022559073
scalar geant_cost_network.node[8].content_store 	hits[8] 	17916
scalar geant_cost_network.node[8].content_store 	misses[8] 	245570
scalar geant_cost_network.node[8].content_store 	decision_yes[8] 	2423
scalar geant_cost_network.node[8].content_store 	decision_no[8] 	243147
scalar geant_cost_network.node[8].content_store 	decision_ratio[8] 	0.0098668404121025
scalar geant_cost_network.node[9].core_layer 	interests[9] 	342180
scalar geant_cost_network.node[9].core_layer 	data[9] 	275834
scalar geant_cost_network.node[9].content_store 	p_hit[9] 	0.1937781284704
scalar geant_cost_network.node[9].content_store 	hits[9] 	66307
scalar geant_cost_network.node[9].content_store 	misses[9] 	275873
scalar geant_cost_network.node[9].content_store 	decision_yes[9] 	2845
scalar geant_cost_network.node[9].content_store 	decision_no[9] 	272989
scalar geant_cost_network.node[9].content_store 	decision_ratio[9] 	0.010314174467252
scalar geant_cost_network.node[10].core_layer 	interests[10] 	179875
scalar geant_cost_network.node[10].core_layer 	data[10] 	120052
scalar geant_cost_network.node[10].content_store 	p_hit[10] 	0.33246421125782
scalar geant_cost_network.node[10].content_store 	hits[10] 	59802
scalar geant_cost_network.node[10].content_store 	misses[10] 	120073
scalar geant_cost_network.node[10].content_store 	decision_yes[10] 	1239
scalar geant_cost_network.node[10].content_store 	decision_no[10] 	118813
scalar geant_cost_network.node[10].content_store 	decision_ratio[10] 	0.010320527771299
scalar geant_cost_network.node[11].core_layer 	interests[11] 	0
scalar geant_cost_network.node[11].core_layer 	data[11] 	0
scalar geant_cost_network.node[11].content_store 	p_hit[11] 	-nan
scalar geant_cost_network.node[11].content_store 	hits[11] 	0
scalar geant_cost_network.node[11].content_store 	misses[11] 	0
scalar geant_cost_network.node[11].content_store 	decision_yes[11] 	0
scalar geant_cost_network.node[11].content_store 	decision_no[11] 	0
scalar geant_cost_network.node[11].content_store 	decision_ratio[11] 	0
scalar geant_cost_network.node[12].core_layer 	interests[12] 	262192
scalar geant_cost_network.node[12].core_layer 	data[12] 	199886
scalar geant_cost_network.node[12].content_store 	p_hit[12] 	0.23744431561604
scalar geant_cost_network.node[12].content_store 	hits[12] 	62256
scalar geant_cost_network.node[12].content_store 	misses[12] 	199936
scalar geant_cost_network.node[12].content_store 	decision_yes[12] 	1992
scalar geant_cost_network.node[12].content_store 	decision_no[12] 	197894
scalar geant_cost_network.node[12].content_store 	decision_ratio[12] 	0.0099656804378496
scalar geant_cost_network.node[13].core_layer 	interests[13] 	0
scalar geant_cost_network.node[13].core_layer 	data[13] 	0
scalar geant_cost_network.node[13].content_store 	p_hit[13] 	-nan
scalar geant_cost_network.node[13].content_store 	hits[13] 	0
scalar geant_cost_network.node[13].content_store 	misses[13] 	0
scalar geant_cost_network.node[13].content_store 	decision_yes[13] 	0
scalar geant_cost_network.node[13].content_store 	decision_no[13] 	0
scalar geant_cost_network.node[13].content_store 	decision_ratio[13] 	0
scalar geant_cost_network.node[14].core_layer 	interests[14] 	41381
scalar geant_cost_network.node[14].core_layer 	data[14] 	35963
scalar geant_cost_network.node[14].content_store 	p_hit[14] 	0.13092965370581
scalar geant_cost_network.node[14].content_store 	hits[14] 	5418
scalar geant_cost_network.node[14].content_store 	misses[14] 	35963
scalar geant_cost_network.node[14].content_store 	decision_yes[14] 	376
scalar geant_cost_network.node[14].content_store 	decision_no[14] 	35587
scalar geant_cost_network.node[14].content_store 	decision_ratio[14] 	0.010455190056447
scalar geant_cost_network.node[15].core_layer 	interests[15] 	0
scalar geant_cost_network.node[15].core_layer 	data[15] 	0
scalar geant_cost_network.node[15].content_store 	p_hit[15] 	-nan
scalar geant_cost_network.node[15].content_store 	hits[15] 	0
scalar geant_cost_network.node[15].content_store 	misses[15] 	0
scalar geant_cost_network.node[15].content_store 	decision_yes[15] 	0
scalar geant_cost_network.node[15].content_store 	decision_no[15] 	0
scalar geant_cost_network.node[15].content_store 	decision_ratio[15] 	0
scalar geant_cost_network.node[16].core_layer 	interests[16] 	0
scalar geant_cost_network.node[16].core_layer 	data[16] 	0
scalar geant_cost_network.node[16].content_store 	p_hit[16] 	-nan
scalar geant_cost_network.node[16].content_store 	hits[16] 	0
scalar geant_cost_network.node[16].content_store 	misses[16] 	0
scalar geant_cost_network.node[16].content_store 	decision_yes[16] 	0
scalar geant_cost_network.node[16].content_store 	decision_no[16] 	0
scalar geant_cost_network.node[16].content_store 	decision_ratio[16] 	0
scalar geant_cost_network.node[17].core_layer 	interests[17] 	0
scalar geant_cost_network.node[17].core_layer 	data[17] 	0
scalar geant_cost_network.node[17].content_store 	p_hit[17] 	-nan
scalar geant_cost_network.node[17].content_store 	hits[17] 	0
scalar geant_cost_network.node[17].content_store 	misses[17] 	0
scalar geant_cost_network.node[17].content_store 	decision_yes[17] 	0
scalar geant_cost_network.node[17].content_store 	decision_no[17] 	0
scalar geant_cost_network.node[17].content_store 	decision_ratio[17] 	0
scalar geant_cost_network.node[18].core_layer 	interests[18] 	79166
scalar geant_cost_network.node[18].core_layer 	data[18] 	71747
scalar geant_cost_network.node[18].content_store 	p_hit[18] 	0.093714473385039
scalar geant_cost_network.node[18].content_store 	hits[18] 	7419
scalar geant_cost_network.node[18].content_store 	misses[18] 	71747
scalar geant_cost_network.node[18].content_store 	decision_yes[18] 	690
scalar geant_cost_network.node[18].content_store 	decision_no[18] 	71057
scalar geant_cost_network.node[18].content_store 	decision_ratio[18] 	0.0096171268485093
scalar geant_cost_network.node[19].core_layer 	interests[19] 	0
scalar geant_cost_network.node[19].core_layer 	data[19] 	0
scalar geant_cost_network.node[19].content_store 	p_hit[19] 	-nan
scalar geant_cost_network.node[19].content_store 	hits[19] 	0
scalar geant_cost_network.node[19].content_store 	misses[19] 	0
scalar geant_cost_network.node[19].content_store 	decision_yes[19] 	0
scalar geant_cost_network.node[19].content_store 	decision_no[19] 	0
scalar geant_cost_network.node[19].content_store 	decision_ratio[19] 	0
scalar geant_cost_network.node[20].core_layer 	interests[20] 	181139
scalar geant_cost_network.node[20].core_layer 	data[20] 	120800
scalar geant_cost_network.node[20].content_store 	p_hit[20] 	0.3329984155814
scalar geant_cost_network.node[20].content_store 	hits[20] 	60319
scalar geant_cost_network.node[20].content_store 	misses[20] 	120820
scalar geant_cost_network.node[20].content_store 	decision_yes[20] 	1176
scalar geant_cost_network.node[20].content_store 	decision_no[20] 	119624
scalar geant_cost_network.node[20].content_store 	decision_ratio[20] 	0.0097350993377483
scalar geant_cost_network.node[21].core_layer 	interests[21] 	181921
scalar geant_cost_network.node[21].core_layer 	data[21] 	169399
scalar geant_cost_network.node[21].content_store 	p_hit[21] 	0.068832075461327
scalar geant_cost_network.node[21].content_store 	hits[21] 	12522
scalar geant_cost_network.node[21].content_store 	misses[21] 	169399
scalar geant_cost_network.node[21].content_store 	decision_yes[21] 	1699
scalar geant_cost_network.node[21].content_store 	decision_no[21] 	167700
scalar geant_cost_network.node[21].content_store 	decision_ratio[21] 	0.010029575145072
scalar geant_cost_network.node[22].core_layer 	interests[22] 	166673
scalar geant_cost_network.node[22].core_layer 	repo_load[22] 	166673
scalar geant_cost_network.node[22].core_layer 	data[22] 	0
scalar geant_cost_network.node[22].content_store 	p_hit[22] 	0
scalar geant_cost_network.node[22].content_store 	hits[22] 	0
scalar geant_cost_network.node[22].content_store 	misses[22] 	166673
scalar geant_cost_network.node[22].content_store 	decision_yes[22] 	0
scalar geant_cost_network.node[22].content_store 	decision_no[22] 	166673
scalar geant_cost_network.node[22].content_store 	decision_ratio[22] 	0
scalar geant_cost_network.node[23].core_layer 	interests[23] 	170834
scalar geant_cost_network.node[23].core_layer 	repo_load[23] 	170834
scalar geant_cost_network.node[23].core_layer 	data[23] 	0
scalar geant_cost_network.node[23].content_store 	p_hit[23] 	0
scalar geant_cost_network.node[23].content_store 	hits[23] 	0
scalar geant_cost_network.node[23].content_store 	misses[23] 	170834
scalar geant_cost_network.node[23].content_store 	decision_yes[23] 	0
scalar geant_cost_network.node[23].content_store 	decision_no[23] 	170834
scalar geant_cost_network.node[23].content_store 	decision_ratio[23] 	0
scalar geant_cost_network.node[24].core_layer 	interests[24] 	169399
scalar geant_cost_network.node[24].core_layer 	repo_load[24] 	169399
scalar geant_cost_network.node[24].core_layer 	data[24] 	0
scalar geant_cost_network.node[24].content_store 	p_hit[24] 	0
scalar geant_cost_network.node[24].content_store 	hits[24] 	0
scalar geant_cost_network.node[24].content_store 	misses[24] 	169399
scalar geant_cost_network.node[24].content_store 	decision_yes[24] 	0
scalar geant_cost_network.node[24].content_store 	decision_no[24] 	169399
scalar geant_cost_network.node[24].content_store 	decision_ratio[24] 	0
scalar geant_cost_network.client[5] 	hdistance[5] 	2.5713396469699
scalar geant_cost_network.client[5] 	downloads[5] 	179928
scalar geant_cost_network.client[5] 	avg_time[5] 	0.006792395662
scalar geant_cost_network.client[5] 	interests_sent[5] 	179959
scalar geant_cost_network.client[9] 	hdistance[9] 	2.6389927491678
scalar geant_cost_network.client[9] 	downloads[9] 	180531
scalar geant_cost_network.client[9] 	avg_time[9] 	0.00271548156
scalar geant_cost_network.client[9] 	interests_sent[9] 	180547
scalar geant_cost_network.client[10] 	hdistance[10] 	3.2139346358713
scalar geant_cost_network.client[10] 	downloads[10] 	179854
scalar geant_cost_network.client[10] 	avg_time[10] 	0.003963327262
scalar geant_cost_network.client[10] 	interests_sent[10] 	179875
scalar geant_cost_network.client[12] 	hdistance[12] 	2.8400818496235
scalar geant_cost_network.client[12] 	downloads[12] 	179842
scalar geant_cost_network.client[12] 	avg_time[12] 	0.003271534668
scalar geant_cost_network.client[12] 	interests_sent[12] 	179868
scalar geant_cost_network.client[20] 	hdistance[20] 	2.7805586382433
scalar geant_cost_network.client[20] 	downloads[20] 	181119
scalar geant_cost_network.client[20] 	avg_time[20] 	0.004455427721
scalar geant_cost_network.client[20] 	interests_sent[20] 	181139
