version 2
run General-14-20140626-16:39:58-16594
attr D fix0.01
attr F spr
attr R lru
attr a 1
attr configname General
attr csize 1e3
attr ctlg 1e5
attr datetime 20140626-16:39:58
attr experiment General
attr inifile omnetpp.ini
attr iterationvars "$net=geant_cost, $rep=2, $priceratiovalue=10, $weights=0.333_0.333_0.334, $lambda=100, $a=1, $ctlg=1e5, $F=spr, $ttl=1000, $D=fix0.01, $xi=1, $R=lru, $csize=1e3, $pricebits=0, $mytime=1800"
attr iterationvars2 "$net=geant_cost, $rep=2, $priceratiovalue=10, $weights=0.333_0.333_0.334, $lambda=100, $a=1, $ctlg=1e5, $F=spr, $ttl=1000, $D=fix0.01, $xi=1, $R=lru, $csize=1e3, $pricebits=0, $mytime=1800, $repetition=0"
attr lambda 100
attr measurement "$net=geant_cost, $rep=2, $priceratiovalue=10, $weights=0.333_0.333_0.334, $lambda=100, $a=1, $ctlg=1e5, $F=spr, $ttl=1000, $D=fix0.01, $xi=1, $R=lru, $csize=1e3, $pricebits=0, $mytime=1800"
attr mytime 1800
attr net geant_cost
attr network "networks.${net=geant_cost, abilene_cost}_network"
attr pricebits 0
attr priceratiovalue 10
attr processid 16594
attr rep 2
attr repetition 0
attr replication #0
attr resultdir results
attr runnumber 14
attr seedset 2
attr ttl 1000
attr weights 0.333_0.333_0.334
attr xi 1

scalar . 	a 	1
scalar . 	csize 	1e3
scalar . 	ctlg 	1e5
scalar . 	lambda 	100
scalar . 	mytime 	1800
scalar . 	pricebits 	0
scalar . 	priceratiovalue 	10
scalar . 	rep 	2
scalar . 	ttl 	1000
scalar . 	xi 	1
scalar geant_cost_network.content_distribution 	repo-0 	22
scalar geant_cost_network.content_distribution 	repo-1 	23
scalar geant_cost_network.content_distribution 	repo-2 	24
scalar geant_cost_network.content_distribution 	client-0 	20
scalar geant_cost_network.content_distribution 	client-1 	10
scalar geant_cost_network.content_distribution 	client-2 	12
scalar geant_cost_network.content_distribution 	client-3 	9
scalar geant_cost_network.content_distribution 	client-4 	5
scalar geant_cost_network.content_distribution 	repo-0_card 	33329
scalar geant_cost_network.content_distribution 	repo-1_card 	33051
scalar geant_cost_network.content_distribution 	repo-2_card 	33620
scalar geant_cost_network.statistics 	repo_popularity[0] 	0.40477944494875
scalar geant_cost_network.statistics 	repo_popularity[1] 	0.29142457969466
scalar geant_cost_network.statistics 	repo_popularity[2] 	0.30379597535658
scalar geant_cost_network.statistics 	stabilization_time 	36060
scalar geant_cost_network.node[7].face$o[4].channel 	price[7] 	0
scalar geant_cost_network.node[7].face$o[4].channel 	represented_price[7] 	0
scalar geant_cost_network.node[8].face$o[3].channel 	price[8] 	0
scalar geant_cost_network.node[8].face$o[3].channel 	represented_price[8] 	0
scalar geant_cost_network.node[21].face$o[5].channel 	price[21] 	0
scalar geant_cost_network.node[21].face$o[5].channel 	represented_price[21] 	0
scalar geant_cost_network.node[22].face$o[1].channel 	price[22] 	0
scalar geant_cost_network.node[22].face$o[1].channel 	represented_price[22] 	0
scalar geant_cost_network.node[23].face$o[1].channel 	price[23] 	1
scalar geant_cost_network.node[23].face$o[1].channel 	represented_price[23] 	1
scalar geant_cost_network.node[24].face$o[1].channel 	price[24] 	10
scalar geant_cost_network.node[24].face$o[1].channel 	represented_price[24] 	10
scalar geant_cost_network.statistics 	p_hit 	0.13464445782327
scalar geant_cost_network.statistics 	interests 	116602.2
scalar geant_cost_network.statistics 	data 	80647.2
scalar geant_cost_network.statistics 	hdistance 	2.8069554134904
scalar geant_cost_network.statistics 	avg_time 	0.004225725472
scalar geant_cost_network.statistics 	downloads 	898738
scalar geant_cost_network.statistics 	total_cost 	1798684
scalar geant_cost_network.statistics 	total_replicas 	100000
scalar geant_cost_network.statistics 	inner_hit 	0.43676243799639
scalar geant_cost_network.statistics 	interests_sent 	898870
scalar geant_cost_network.node[0].core_layer 	interests[0] 	0
scalar geant_cost_network.node[0].core_layer 	data[0] 	0
scalar geant_cost_network.node[0].core_layer 	repo_int[0] 	506203
scalar geant_cost_network.node[0].content_store 	p_hit[0] 	-nan
scalar geant_cost_network.node[0].content_store 	hits[0] 	0
scalar geant_cost_network.node[0].content_store 	misses[0] 	0
scalar geant_cost_network.node[0].content_store 	decision_yes[0] 	0
scalar geant_cost_network.node[0].content_store 	decision_no[0] 	0
scalar geant_cost_network.node[0].content_store 	decision_ratio[0] 	0
scalar geant_cost_network.node[1].core_layer 	interests[1] 	0
scalar geant_cost_network.node[1].core_layer 	data[1] 	0
scalar geant_cost_network.node[1].content_store 	p_hit[1] 	-nan
scalar geant_cost_network.node[1].content_store 	hits[1] 	0
scalar geant_cost_network.node[1].content_store 	misses[1] 	0
scalar geant_cost_network.node[1].content_store 	decision_yes[1] 	0
scalar geant_cost_network.node[1].content_store 	decision_no[1] 	0
scalar geant_cost_network.node[1].content_store 	decision_ratio[1] 	0
scalar geant_cost_network.node[2].core_layer 	interests[2] 	0
scalar geant_cost_network.node[2].core_layer 	data[2] 	0
scalar geant_cost_network.node[2].content_store 	p_hit[2] 	-nan
scalar geant_cost_network.node[2].content_store 	hits[2] 	0
scalar geant_cost_network.node[2].content_store 	misses[2] 	0
scalar geant_cost_network.node[2].content_store 	decision_yes[2] 	0
scalar geant_cost_network.node[2].content_store 	decision_no[2] 	0
scalar geant_cost_network.node[2].content_store 	decision_ratio[2] 	0
scalar geant_cost_network.node[3].core_layer 	interests[3] 	152123
scalar geant_cost_network.node[3].core_layer 	data[3] 	141192
scalar geant_cost_network.node[3].content_store 	p_hit[3] 	0.071862900416111
scalar geant_cost_network.node[3].content_store 	hits[3] 	10932
scalar geant_cost_network.node[3].content_store 	misses[3] 	141191
scalar geant_cost_network.node[3].content_store 	decision_yes[3] 	1437
scalar geant_cost_network.node[3].content_store 	decision_no[3] 	139755
scalar geant_cost_network.node[3].content_store 	decision_ratio[3] 	0.010177630460649
scalar geant_cost_network.node[4].core_layer 	interests[4] 	214739
scalar geant_cost_network.node[4].core_layer 	data[4] 	206465
scalar geant_cost_network.node[4].content_store 	p_hit[4] 	0.038516524711394
scalar geant_cost_network.node[4].content_store 	hits[4] 	8271
scalar geant_cost_network.node[4].content_store 	misses[4] 	206468
scalar geant_cost_network.node[4].content_store 	decision_yes[4] 	2051
scalar geant_cost_network.node[4].content_store 	decision_no[4] 	204414
scalar geant_cost_network.node[4].content_store 	decision_ratio[4] 	0.0099338870995084
scalar geant_cost_network.node[5].core_layer 	interests[5] 	180398
scalar geant_cost_network.node[5].core_layer 	data[5] 	119795
scalar geant_cost_network.node[5].content_store 	p_hit[5] 	0.33567445315358
scalar geant_cost_network.node[5].content_store 	hits[5] 	60555
scalar geant_cost_network.node[5].content_store 	misses[5] 	119843
scalar geant_cost_network.node[5].content_store 	decision_yes[5] 	1215
scalar geant_cost_network.node[5].content_store 	decision_no[5] 	118580
scalar geant_cost_network.node[5].content_store 	decision_ratio[5] 	0.010142326474394
scalar geant_cost_network.node[6].core_layer 	interests[6] 	79533
scalar geant_cost_network.node[6].core_layer 	data[6] 	73211
scalar geant_cost_network.node[6].content_store 	p_hit[6] 	0.079463870343128
scalar geant_cost_network.node[6].content_store 	hits[6] 	6320
scalar geant_cost_network.node[6].content_store 	misses[6] 	73213
scalar geant_cost_network.node[6].content_store 	decision_yes[6] 	702
scalar geant_cost_network.node[6].content_store 	decision_no[6] 	72509
scalar geant_cost_network.node[6].content_store 	decision_ratio[6] 	0.0095887230061056
scalar geant_cost_network.node[7].core_layer 	interests[7] 	254752
scalar geant_cost_network.node[7].core_layer 	data[7] 	240084
scalar geant_cost_network.node[7].content_store 	p_hit[7] 	0.0575736402462
scalar geant_cost_network.node[7].content_store 	hits[7] 	14667
scalar geant_cost_network.node[7].content_store 	misses[7] 	240085
scalar geant_cost_network.node[7].content_store 	decision_yes[7] 	2441
scalar geant_cost_network.node[7].content_store 	decision_no[7] 	237643
scalar geant_cost_network.node[7].content_store 	decision_ratio[7] 	0.010167274787158
scalar geant_cost_network.node[8].core_layer 	interests[8] 	270400
scalar geant_cost_network.node[8].core_layer 	data[8] 	251091
scalar geant_cost_network.node[8].content_store 	p_hit[8] 	0.071409023668639
scalar geant_cost_network.node[8].content_store 	hits[8] 	19309
scalar geant_cost_network.node[8].content_store 	misses[8] 	251091
scalar geant_cost_network.node[8].content_store 	decision_yes[8] 	2468
scalar geant_cost_network.node[8].content_store 	decision_no[8] 	248623
scalar geant_cost_network.node[8].content_store 	decision_ratio[8] 	0.0098291057823658
scalar geant_cost_network.node[9].core_layer 	interests[9] 	343209
scalar geant_cost_network.node[9].core_layer 	data[9] 	278288
scalar geant_cost_network.node[9].content_store 	p_hit[9] 	0.18905681377819
scalar geant_cost_network.node[9].content_store 	hits[9] 	64886
scalar geant_cost_network.node[9].content_store 	misses[9] 	278323
scalar geant_cost_network.node[9].content_store 	decision_yes[9] 	2802
scalar geant_cost_network.node[9].content_store 	decision_no[9] 	275486
scalar geant_cost_network.node[9].content_store 	decision_ratio[9] 	0.010068705801184
scalar geant_cost_network.node[10].core_layer 	interests[10] 	179770
scalar geant_cost_network.node[10].core_layer 	data[10] 	119732
scalar geant_cost_network.node[10].content_store 	p_hit[10] 	0.33388218278912
scalar geant_cost_network.node[10].content_store 	hits[10] 	60022
scalar geant_cost_network.node[10].content_store 	misses[10] 	119748
scalar geant_cost_network.node[10].content_store 	decision_yes[10] 	1214
scalar geant_cost_network.node[10].content_store 	decision_no[10] 	118518
scalar geant_cost_network.node[10].content_store 	decision_ratio[10] 	0.010139311128186
scalar geant_cost_network.node[11].core_layer 	interests[11] 	0
scalar geant_cost_network.node[11].core_layer 	data[11] 	0
scalar geant_cost_network.node[11].content_store 	p_hit[11] 	-nan
scalar geant_cost_network.node[11].content_store 	hits[11] 	0
scalar geant_cost_network.node[11].content_store 	misses[11] 	0
scalar geant_cost_network.node[11].content_store 	decision_yes[11] 	0
scalar geant_cost_network.node[11].content_store 	decision_no[11] 	0
scalar geant_cost_network.node[11].content_store 	decision_ratio[11] 	0
scalar geant_cost_network.node[12].core_layer 	interests[12] 	259536
scalar geant_cost_network.node[12].core_layer 	data[12] 	195553
scalar geant_cost_network.node[12].content_store 	p_hit[12] 	0.24637815177856
scalar geant_cost_network.node[12].content_store 	hits[12] 	63944
scalar geant_cost_network.node[12].content_store 	misses[12] 	195592
scalar geant_cost_network.node[12].content_store 	decision_yes[12] 	1921
scalar geant_cost_network.node[12].content_store 	decision_no[12] 	193632
scalar geant_cost_network.node[12].content_store 	decision_ratio[12] 	0.0098234238288341
scalar geant_cost_network.node[13].core_layer 	interests[13] 	0
scalar geant_cost_network.node[13].core_layer 	data[13] 	0
scalar geant_cost_network.node[13].content_store 	p_hit[13] 	-nan
scalar geant_cost_network.node[13].content_store 	hits[13] 	0
scalar geant_cost_network.node[13].content_store 	misses[13] 	0
scalar geant_cost_network.node[13].content_store 	decision_yes[13] 	0
scalar geant_cost_network.node[13].content_store 	decision_no[13] 	0
scalar geant_cost_network.node[13].content_store 	decision_ratio[13] 	0
scalar geant_cost_network.node[14].core_layer 	interests[14] 	40263
scalar geant_cost_network.node[14].core_layer 	data[14] 	35207
scalar geant_cost_network.node[14].content_store 	p_hit[14] 	0.12557434865758
scalar geant_cost_network.node[14].content_store 	hits[14] 	5056
scalar geant_cost_network.node[14].content_store 	misses[14] 	35207
scalar geant_cost_network.node[14].content_store 	decision_yes[14] 	346
scalar geant_cost_network.node[14].content_store 	decision_no[14] 	34861
scalar geant_cost_network.node[14].content_store 	decision_ratio[14] 	0.0098275911040418
scalar geant_cost_network.node[15].core_layer 	interests[15] 	0
scalar geant_cost_network.node[15].core_layer 	data[15] 	0
scalar geant_cost_network.node[15].content_store 	p_hit[15] 	-nan
scalar geant_cost_network.node[15].content_store 	hits[15] 	0
scalar geant_cost_network.node[15].content_store 	misses[15] 	0
scalar geant_cost_network.node[15].content_store 	decision_yes[15] 	0
scalar geant_cost_network.node[15].content_store 	decision_no[15] 	0
scalar geant_cost_network.node[15].content_store 	decision_ratio[15] 	0
scalar geant_cost_network.node[16].core_layer 	interests[16] 	0
scalar geant_cost_network.node[16].core_layer 	data[16] 	0
scalar geant_cost_network.node[16].content_store 	p_hit[16] 	-nan
scalar geant_cost_network.node[16].content_store 	hits[16] 	0
scalar geant_cost_network.node[16].content_store 	misses[16] 	0
scalar geant_cost_network.node[16].content_store 	decision_yes[16] 	0
scalar geant_cost_network.node[16].content_store 	decision_no[16] 	0
scalar geant_cost_network.node[16].content_store 	decision_ratio[16] 	0
scalar geant_cost_network.node[17].core_layer 	interests[17] 	0
scalar geant_cost_network.node[17].core_layer 	data[17] 	0
scalar geant_cost_network.node[17].content_store 	p_hit[17] 	-nan
scalar geant_cost_network.node[17].content_store 	hits[17] 	0
scalar geant_cost_network.node[17].content_store 	misses[17] 	0
scalar geant_cost_network.node[17].content_store 	decision_yes[17] 	0
scalar geant_cost_network.node[17].content_store 	decision_no[17] 	0
scalar geant_cost_network.node[17].content_store 	decision_ratio[17] 	0
scalar geant_cost_network.node[18].core_layer 	interests[18] 	80016
scalar geant_cost_network.node[18].core_layer 	data[18] 	73546
scalar geant_cost_network.node[18].content_store 	p_hit[18] 	0.080846330733853
scalar geant_cost_network.node[18].content_store 	hits[18] 	6469
scalar geant_cost_network.node[18].content_store 	misses[18] 	73547
scalar geant_cost_network.node[18].content_store 	decision_yes[18] 	711
scalar geant_cost_network.node[18].content_store 	decision_no[18] 	72835
scalar geant_cost_network.node[18].content_store 	decision_ratio[18] 	0.0096674190302668
scalar geant_cost_network.node[19].core_layer 	interests[19] 	0
scalar geant_cost_network.node[19].core_layer 	data[19] 	0
scalar geant_cost_network.node[19].content_store 	p_hit[19] 	-nan
scalar geant_cost_network.node[19].content_store 	hits[19] 	0
scalar geant_cost_network.node[19].content_store 	misses[19] 	0
scalar geant_cost_network.node[19].content_store 	decision_yes[19] 	0
scalar geant_cost_network.node[19].content_store 	decision_no[19] 	0
scalar geant_cost_network.node[19].content_store 	decision_ratio[19] 	0
scalar geant_cost_network.node[20].core_layer 	interests[20] 	179357
scalar geant_cost_network.node[20].core_layer 	data[20] 	119770
scalar geant_cost_network.node[20].content_store 	p_hit[20] 	0.33204725770391
scalar geant_cost_network.node[20].content_store 	hits[20] 	59555
scalar geant_cost_network.node[20].content_store 	misses[20] 	119802
scalar geant_cost_network.node[20].content_store 	decision_yes[20] 	1240
scalar geant_cost_network.node[20].content_store 	decision_no[20] 	118530
scalar geant_cost_network.node[20].content_store 	decision_ratio[20] 	0.010353176922435
scalar geant_cost_network.node[21].core_layer 	interests[21] 	174756
scalar geant_cost_network.node[21].core_layer 	data[21] 	162246
scalar geant_cost_network.node[21].content_store 	p_hit[21] 	0.071585524960516
scalar geant_cost_network.node[21].content_store 	hits[21] 	12510
scalar geant_cost_network.node[21].content_store 	misses[21] 	162246
scalar geant_cost_network.node[21].content_store 	decision_yes[21] 	1565
scalar geant_cost_network.node[21].content_store 	decision_no[21] 	160681
scalar geant_cost_network.node[21].content_store 	decision_ratio[21] 	0.0096458464307286
scalar geant_cost_network.node[22].core_layer 	interests[22] 	167733
scalar geant_cost_network.node[22].core_layer 	repo_load[22] 	167733
scalar geant_cost_network.node[22].core_layer 	data[22] 	0
scalar geant_cost_network.node[22].content_store 	p_hit[22] 	0
scalar geant_cost_network.node[22].content_store 	hits[22] 	0
scalar geant_cost_network.node[22].content_store 	misses[22] 	167733
scalar geant_cost_network.node[22].content_store 	decision_yes[22] 	0
scalar geant_cost_network.node[22].content_store 	decision_no[22] 	167733
scalar geant_cost_network.node[22].content_store 	decision_ratio[22] 	0
scalar geant_cost_network.node[23].core_layer 	interests[23] 	176224
scalar geant_cost_network.node[23].core_layer 	repo_load[23] 	176224
scalar geant_cost_network.node[23].core_layer 	data[23] 	0
scalar geant_cost_network.node[23].content_store 	p_hit[23] 	0
scalar geant_cost_network.node[23].content_store 	hits[23] 	0
scalar geant_cost_network.node[23].content_store 	misses[23] 	176224
scalar geant_cost_network.node[23].content_store 	decision_yes[23] 	0
scalar geant_cost_network.node[23].content_store 	decision_no[23] 	176224
scalar geant_cost_network.node[23].content_store 	decision_ratio[23] 	0
scalar geant_cost_network.node[24].core_layer 	interests[24] 	162246
scalar geant_cost_network.node[24].core_layer 	repo_load[24] 	162246
scalar geant_cost_network.node[24].core_layer 	data[24] 	0
scalar geant_cost_network.node[24].content_store 	p_hit[24] 	0
scalar geant_cost_network.node[24].content_store 	hits[24] 	0
scalar geant_cost_network.node[24].content_store 	misses[24] 	162246
scalar geant_cost_network.node[24].content_store 	decision_yes[24] 	0
scalar geant_cost_network.node[24].content_store 	decision_no[24] 	162246
scalar geant_cost_network.node[24].content_store 	decision_ratio[24] 	0
scalar geant_cost_network.client[5] 	hdistance[5] 	2.5723925700027
scalar geant_cost_network.client[5] 	downloads[5] 	180350
scalar geant_cost_network.client[5] 	avg_time[5] 	0.006774182826
scalar geant_cost_network.client[5] 	interests_sent[5] 	180398
scalar geant_cost_network.client[9] 	hdistance[9] 	2.6360152192629
scalar geant_cost_network.client[9] 	downloads[9] 	180035
scalar geant_cost_network.client[9] 	avg_time[9] 	0.002670241117
scalar geant_cost_network.client[9] 	interests_sent[9] 	180048
scalar geant_cost_network.client[10] 	hdistance[10] 	3.2046519131702
scalar geant_cost_network.client[10] 	downloads[10] 	179754
scalar geant_cost_network.client[10] 	avg_time[10] 	0.003908774449
scalar geant_cost_network.client[10] 	interests_sent[10] 	179770
scalar geant_cost_network.client[12] 	hdistance[12] 	2.8130682642213
scalar geant_cost_network.client[12] 	downloads[12] 	179274
scalar geant_cost_network.client[12] 	avg_time[12] 	0.003195288618
scalar geant_cost_network.client[12] 	interests_sent[12] 	179297
scalar geant_cost_network.client[20] 	hdistance[20] 	2.8086491007946
scalar geant_cost_network.client[20] 	downloads[20] 	179325
scalar geant_cost_network.client[20] 	avg_time[20] 	0.004580140352
scalar geant_cost_network.client[20] 	interests_sent[20] 	179357
