version 2
run General-6-20140627-18:01:22-15158
attr D fix0.01
attr F spr
attr R lru
attr a 1
attr configname General
attr csize 1e3
attr ctlg 1e5
attr datetime 20140627-18:01:22
attr experiment General
attr inifile omnetpp.ini
attr iterationvars "$net=geant_cost, $rep=18, $priceratiovalue=10, $weights=0.333_0.333_0.334, $lambda=100, $a=1, $ctlg=1e5, $F=spr, $ttl=1000, $D=fix0.01, $xi=1, $R=lru, $csize=1e3, $pricebits=0, $window=60, $variance=0.05, $mytime=1800"
attr iterationvars2 "$net=geant_cost, $rep=18, $priceratiovalue=10, $weights=0.333_0.333_0.334, $lambda=100, $a=1, $ctlg=1e5, $F=spr, $ttl=1000, $D=fix0.01, $xi=1, $R=lru, $csize=1e3, $pricebits=0, $window=60, $variance=0.05, $mytime=1800, $repetition=0"
attr lambda 100
attr measurement "$net=geant_cost, $rep=18, $priceratiovalue=10, $weights=0.333_0.333_0.334, $lambda=100, $a=1, $ctlg=1e5, $F=spr, $ttl=1000, $D=fix0.01, $xi=1, $R=lru, $csize=1e3, $pricebits=0, $window=60, $variance=0.05, $mytime=1800"
attr mytime 1800
attr net geant_cost
attr network "networks.${net=geant_cost, abilene_cost}_network"
attr pricebits 0
attr priceratiovalue 10
attr processid 15158
attr rep 18
attr repetition 0
attr replication #0
attr resultdir results
attr runnumber 6
attr seedset 18
attr ttl 1000
attr variance 0.05
attr weights 0.333_0.333_0.334
attr window 60
attr xi 1

scalar . 	a 	1
scalar . 	csize 	1e3
scalar . 	ctlg 	1e5
scalar . 	lambda 	100
scalar . 	mytime 	1800
scalar . 	pricebits 	0
scalar . 	priceratiovalue 	10
scalar . 	rep 	18
scalar . 	ttl 	1000
scalar . 	variance 	0.05
scalar . 	window 	60
scalar . 	xi 	1
scalar geant_cost_network.content_distribution 	repo-0 	22
scalar geant_cost_network.content_distribution 	repo-1 	23
scalar geant_cost_network.content_distribution 	repo-2 	24
scalar geant_cost_network.content_distribution 	client-0 	20
scalar geant_cost_network.content_distribution 	client-1 	10
scalar geant_cost_network.content_distribution 	client-2 	12
scalar geant_cost_network.content_distribution 	client-3 	9
scalar geant_cost_network.content_distribution 	client-4 	5
scalar geant_cost_network.content_distribution 	repo-0_card 	33459
scalar geant_cost_network.content_distribution 	repo-1_card 	33216
scalar geant_cost_network.content_distribution 	repo-2_card 	33325
scalar geant_cost_network.statistics 	repo_popularity[0] 	0.37544107217466
scalar geant_cost_network.statistics 	repo_popularity[1] 	0.27083019094872
scalar geant_cost_network.statistics 	repo_popularity[2] 	0.35372873687662
scalar geant_cost_network.statistics 	stabilization_time 	36060
scalar geant_cost_network.node[7].face$o[4].channel 	price[7] 	0
scalar geant_cost_network.node[7].face$o[4].channel 	represented_price[7] 	0
scalar geant_cost_network.node[8].face$o[3].channel 	price[8] 	0
scalar geant_cost_network.node[8].face$o[3].channel 	represented_price[8] 	0
scalar geant_cost_network.node[21].face$o[5].channel 	price[21] 	0
scalar geant_cost_network.node[21].face$o[5].channel 	represented_price[21] 	0
scalar geant_cost_network.node[22].face$o[1].channel 	price[22] 	0
scalar geant_cost_network.node[22].face$o[1].channel 	represented_price[22] 	0
scalar geant_cost_network.node[23].face$o[1].channel 	price[23] 	1
scalar geant_cost_network.node[23].face$o[1].channel 	represented_price[23] 	1
scalar geant_cost_network.node[24].face$o[1].channel 	price[24] 	10
scalar geant_cost_network.node[24].face$o[1].channel 	represented_price[24] 	10
scalar geant_cost_network.statistics 	p_hit 	0.13430082388063
scalar geant_cost_network.statistics 	interests 	116890.72
scalar geant_cost_network.statistics 	data 	80867.04
scalar geant_cost_network.statistics 	hdistance 	2.808961365493
scalar geant_cost_network.statistics 	avg_time 	0.004222524908
scalar geant_cost_network.statistics 	downloads 	900484
scalar geant_cost_network.statistics 	total_cost 	1784143
scalar geant_cost_network.statistics 	total_replicas 	100000
scalar geant_cost_network.statistics 	inner_hit 	0.43587448527681
scalar geant_cost_network.statistics 	interests_sent 	900596
scalar geant_cost_network.node[0].core_layer 	interests[0] 	0
scalar geant_cost_network.node[0].core_layer 	data[0] 	0
scalar geant_cost_network.node[0].core_layer 	repo_int[0] 	507986
scalar geant_cost_network.node[0].content_store 	p_hit[0] 	-nan
scalar geant_cost_network.node[0].content_store 	hits[0] 	0
scalar geant_cost_network.node[0].content_store 	misses[0] 	0
scalar geant_cost_network.node[0].content_store 	decision_yes[0] 	0
scalar geant_cost_network.node[0].content_store 	decision_no[0] 	0
scalar geant_cost_network.node[0].content_store 	decision_ratio[0] 	0
scalar geant_cost_network.node[1].core_layer 	interests[1] 	0
scalar geant_cost_network.node[1].core_layer 	data[1] 	0
scalar geant_cost_network.node[1].content_store 	p_hit[1] 	-nan
scalar geant_cost_network.node[1].content_store 	hits[1] 	0
scalar geant_cost_network.node[1].content_store 	misses[1] 	0
scalar geant_cost_network.node[1].content_store 	decision_yes[1] 	0
scalar geant_cost_network.node[1].content_store 	decision_no[1] 	0
scalar geant_cost_network.node[1].content_store 	decision_ratio[1] 	0
scalar geant_cost_network.node[2].core_layer 	interests[2] 	0
scalar geant_cost_network.node[2].core_layer 	data[2] 	0
scalar geant_cost_network.node[2].content_store 	p_hit[2] 	-nan
scalar geant_cost_network.node[2].content_store 	hits[2] 	0
scalar geant_cost_network.node[2].content_store 	misses[2] 	0
scalar geant_cost_network.node[2].content_store 	decision_yes[2] 	0
scalar geant_cost_network.node[2].content_store 	decision_no[2] 	0
scalar geant_cost_network.node[2].content_store 	decision_ratio[2] 	0
scalar geant_cost_network.node[3].core_layer 	interests[3] 	153897
scalar geant_cost_network.node[3].core_layer 	data[3] 	142320
scalar geant_cost_network.node[3].content_store 	p_hit[3] 	0.075225637926665
scalar geant_cost_network.node[3].content_store 	hits[3] 	11577
scalar geant_cost_network.node[3].content_store 	misses[3] 	142320
scalar geant_cost_network.node[3].content_store 	decision_yes[3] 	1480
scalar geant_cost_network.node[3].content_store 	decision_no[3] 	140840
scalar geant_cost_network.node[3].content_store 	decision_ratio[3] 	0.010399100618325
scalar geant_cost_network.node[4].core_layer 	interests[4] 	216251
scalar geant_cost_network.node[4].core_layer 	data[4] 	208350
scalar geant_cost_network.node[4].content_store 	p_hit[4] 	0.036526998719081
scalar geant_cost_network.node[4].content_store 	hits[4] 	7899
scalar geant_cost_network.node[4].content_store 	misses[4] 	208352
scalar geant_cost_network.node[4].content_store 	decision_yes[4] 	2067
scalar geant_cost_network.node[4].content_store 	decision_no[4] 	206283
scalar geant_cost_network.node[4].content_store 	decision_ratio[4] 	0.0099208063354932
scalar geant_cost_network.node[5].core_layer 	interests[5] 	179547
scalar geant_cost_network.node[5].core_layer 	data[5] 	119517
scalar geant_cost_network.node[5].content_store 	p_hit[5] 	0.33414649089096
scalar geant_cost_network.node[5].content_store 	hits[5] 	59995
scalar geant_cost_network.node[5].content_store 	misses[5] 	119552
scalar geant_cost_network.node[5].content_store 	decision_yes[5] 	1194
scalar geant_cost_network.node[5].content_store 	decision_no[5] 	118323
scalar geant_cost_network.node[5].content_store 	decision_ratio[5] 	0.0099902105976556
scalar geant_cost_network.node[6].core_layer 	interests[6] 	80128
scalar geant_cost_network.node[6].core_layer 	data[6] 	73345
scalar geant_cost_network.node[6].content_store 	p_hit[6] 	0.084652056709265
scalar geant_cost_network.node[6].content_store 	hits[6] 	6783
scalar geant_cost_network.node[6].content_store 	misses[6] 	73345
scalar geant_cost_network.node[6].content_store 	decision_yes[6] 	684
scalar geant_cost_network.node[6].content_store 	decision_no[6] 	72661
scalar geant_cost_network.node[6].content_store 	decision_ratio[6] 	0.0093257890790102
scalar geant_cost_network.node[7].core_layer 	interests[7] 	260203
scalar geant_cost_network.node[7].core_layer 	data[7] 	245012
scalar geant_cost_network.node[7].content_store 	p_hit[7] 	0.058373654415975
scalar geant_cost_network.node[7].content_store 	hits[7] 	15189
scalar geant_cost_network.node[7].content_store 	misses[7] 	245014
scalar geant_cost_network.node[7].content_store 	decision_yes[7] 	2390
scalar geant_cost_network.node[7].content_store 	decision_no[7] 	242622
scalar geant_cost_network.node[7].content_store 	decision_ratio[7] 	0.0097546242633014
scalar geant_cost_network.node[8].core_layer 	interests[8] 	269485
scalar geant_cost_network.node[8].core_layer 	data[8] 	250953
scalar geant_cost_network.node[8].content_store 	p_hit[8] 	0.068768206022599
scalar geant_cost_network.node[8].content_store 	hits[8] 	18532
scalar geant_cost_network.node[8].content_store 	misses[8] 	250953
scalar geant_cost_network.node[8].content_store 	decision_yes[8] 	2538
scalar geant_cost_network.node[8].content_store 	decision_no[8] 	248415
scalar geant_cost_network.node[8].content_store 	decision_ratio[8] 	0.010113447537985
scalar geant_cost_network.node[9].core_layer 	interests[9] 	341692
scalar geant_cost_network.node[9].core_layer 	data[9] 	277804
scalar geant_cost_network.node[9].content_store 	p_hit[9] 	0.18686126687192
scalar geant_cost_network.node[9].content_store 	hits[9] 	63849
scalar geant_cost_network.node[9].content_store 	misses[9] 	277843
scalar geant_cost_network.node[9].content_store 	decision_yes[9] 	2680
scalar geant_cost_network.node[9].content_store 	decision_no[9] 	275124
scalar geant_cost_network.node[9].content_store 	decision_ratio[9] 	0.0096470893147687
scalar geant_cost_network.node[10].core_layer 	interests[10] 	180638
scalar geant_cost_network.node[10].core_layer 	data[10] 	119403
scalar geant_cost_network.node[10].content_store 	p_hit[10] 	0.33889325612551
scalar geant_cost_network.node[10].content_store 	hits[10] 	61217
scalar geant_cost_network.node[10].content_store 	misses[10] 	119421
scalar geant_cost_network.node[10].content_store 	decision_yes[10] 	1213
scalar geant_cost_network.node[10].content_store 	decision_no[10] 	118190
scalar geant_cost_network.node[10].content_store 	decision_ratio[10] 	0.010158873730141
scalar geant_cost_network.node[11].core_layer 	interests[11] 	0
scalar geant_cost_network.node[11].core_layer 	data[11] 	0
scalar geant_cost_network.node[11].content_store 	p_hit[11] 	-nan
scalar geant_cost_network.node[11].content_store 	hits[11] 	0
scalar geant_cost_network.node[11].content_store 	misses[11] 	0
scalar geant_cost_network.node[11].content_store 	decision_yes[11] 	0
scalar geant_cost_network.node[11].content_store 	decision_no[11] 	0
scalar geant_cost_network.node[11].content_store 	decision_ratio[11] 	0
scalar geant_cost_network.node[12].core_layer 	interests[12] 	260194
scalar geant_cost_network.node[12].core_layer 	data[12] 	196116
scalar geant_cost_network.node[12].content_store 	p_hit[12] 	0.24616632205201
scalar geant_cost_network.node[12].content_store 	hits[12] 	64051
scalar geant_cost_network.node[12].content_store 	misses[12] 	196143
scalar geant_cost_network.node[12].content_store 	decision_yes[12] 	1937
scalar geant_cost_network.node[12].content_store 	decision_no[12] 	194179
scalar geant_cost_network.node[12].content_store 	decision_ratio[12] 	0.0098768076036631
scalar geant_cost_network.node[13].core_layer 	interests[13] 	0
scalar geant_cost_network.node[13].core_layer 	data[13] 	0
scalar geant_cost_network.node[13].content_store 	p_hit[13] 	-nan
scalar geant_cost_network.node[13].content_store 	hits[13] 	0
scalar geant_cost_network.node[13].content_store 	misses[13] 	0
scalar geant_cost_network.node[13].content_store 	decision_yes[13] 	0
scalar geant_cost_network.node[13].content_store 	decision_no[13] 	0
scalar geant_cost_network.node[13].content_store 	decision_ratio[13] 	0
scalar geant_cost_network.node[14].core_layer 	interests[14] 	39389
scalar geant_cost_network.node[14].core_layer 	data[14] 	33872
scalar geant_cost_network.node[14].content_store 	p_hit[14] 	0.1400644850085
scalar geant_cost_network.node[14].content_store 	hits[14] 	5517
scalar geant_cost_network.node[14].content_store 	misses[14] 	33872
scalar geant_cost_network.node[14].content_store 	decision_yes[14] 	347
scalar geant_cost_network.node[14].content_store 	decision_no[14] 	33525
scalar geant_cost_network.node[14].content_store 	decision_ratio[14] 	0.010244449692962
scalar geant_cost_network.node[15].core_layer 	interests[15] 	0
scalar geant_cost_network.node[15].core_layer 	data[15] 	0
scalar geant_cost_network.node[15].content_store 	p_hit[15] 	-nan
scalar geant_cost_network.node[15].content_store 	hits[15] 	0
scalar geant_cost_network.node[15].content_store 	misses[15] 	0
scalar geant_cost_network.node[15].content_store 	decision_yes[15] 	0
scalar geant_cost_network.node[15].content_store 	decision_no[15] 	0
scalar geant_cost_network.node[15].content_store 	decision_ratio[15] 	0
scalar geant_cost_network.node[16].core_layer 	interests[16] 	0
scalar geant_cost_network.node[16].core_layer 	data[16] 	0
scalar geant_cost_network.node[16].content_store 	p_hit[16] 	-nan
scalar geant_cost_network.node[16].content_store 	hits[16] 	0
scalar geant_cost_network.node[16].content_store 	misses[16] 	0
scalar geant_cost_network.node[16].content_store 	decision_yes[16] 	0
scalar geant_cost_network.node[16].content_store 	decision_no[16] 	0
scalar geant_cost_network.node[16].content_store 	decision_ratio[16] 	0
scalar geant_cost_network.node[17].core_layer 	interests[17] 	0
scalar geant_cost_network.node[17].core_layer 	data[17] 	0
scalar geant_cost_network.node[17].content_store 	p_hit[17] 	-nan
scalar geant_cost_network.node[17].content_store 	hits[17] 	0
scalar geant_cost_network.node[17].content_store 	misses[17] 	0
scalar geant_cost_network.node[17].content_store 	decision_yes[17] 	0
scalar geant_cost_network.node[17].content_store 	decision_no[17] 	0
scalar geant_cost_network.node[17].content_store 	decision_ratio[17] 	0
scalar geant_cost_network.node[18].core_layer 	interests[18] 	80002
scalar geant_cost_network.node[18].core_layer 	data[18] 	73932
scalar geant_cost_network.node[18].content_store 	p_hit[18] 	0.075898102547436
scalar geant_cost_network.node[18].content_store 	hits[18] 	6072
scalar geant_cost_network.node[18].content_store 	misses[18] 	73930
scalar geant_cost_network.node[18].content_store 	decision_yes[18] 	730
scalar geant_cost_network.node[18].content_store 	decision_no[18] 	73202
scalar geant_cost_network.node[18].content_store 	decision_ratio[18] 	0.0098739382134935
scalar geant_cost_network.node[19].core_layer 	interests[19] 	0
scalar geant_cost_network.node[19].core_layer 	data[19] 	0
scalar geant_cost_network.node[19].content_store 	p_hit[19] 	-nan
scalar geant_cost_network.node[19].content_store 	hits[19] 	0
scalar geant_cost_network.node[19].content_store 	misses[19] 	0
scalar geant_cost_network.node[19].content_store 	decision_yes[19] 	0
scalar geant_cost_network.node[19].content_store 	decision_no[19] 	0
scalar geant_cost_network.node[19].content_store 	decision_ratio[19] 	0
scalar geant_cost_network.node[20].core_layer 	interests[20] 	180446
scalar geant_cost_network.node[20].core_layer 	data[20] 	120031
scalar geant_cost_network.node[20].content_store 	p_hit[20] 	0.33468738569988
scalar geant_cost_network.node[20].content_store 	hits[20] 	60393
scalar geant_cost_network.node[20].content_store 	misses[20] 	120053
scalar geant_cost_network.node[20].content_store 	decision_yes[20] 	1210
scalar geant_cost_network.node[20].content_store 	decision_no[20] 	118821
scalar geant_cost_network.node[20].content_store 	decision_ratio[20] 	0.010080729144971
scalar geant_cost_network.node[21].core_layer 	interests[21] 	172410
scalar geant_cost_network.node[21].core_layer 	data[21] 	161021
scalar geant_cost_network.node[21].content_store 	p_hit[21] 	0.066057653268372
scalar geant_cost_network.node[21].content_store 	hits[21] 	11389
scalar geant_cost_network.node[21].content_store 	misses[21] 	161021
scalar geant_cost_network.node[21].content_store 	decision_yes[21] 	1621
scalar geant_cost_network.node[21].content_store 	decision_no[21] 	159400
scalar geant_cost_network.node[21].content_store 	decision_ratio[21] 	0.01006700989312
scalar geant_cost_network.node[22].core_layer 	interests[22] 	173032
scalar geant_cost_network.node[22].core_layer 	repo_load[22] 	173032
scalar geant_cost_network.node[22].core_layer 	data[22] 	0
scalar geant_cost_network.node[22].content_store 	p_hit[22] 	0
scalar geant_cost_network.node[22].content_store 	hits[22] 	0
scalar geant_cost_network.node[22].content_store 	misses[22] 	173032
scalar geant_cost_network.node[22].content_store 	decision_yes[22] 	0
scalar geant_cost_network.node[22].content_store 	decision_no[22] 	173032
scalar geant_cost_network.node[22].content_store 	decision_ratio[22] 	0
scalar geant_cost_network.node[23].core_layer 	interests[23] 	173933
scalar geant_cost_network.node[23].core_layer 	repo_load[23] 	173933
scalar geant_cost_network.node[23].core_layer 	data[23] 	0
scalar geant_cost_network.node[23].content_store 	p_hit[23] 	0
scalar geant_cost_network.node[23].content_store 	hits[23] 	0
scalar geant_cost_network.node[23].content_store 	misses[23] 	173933
scalar geant_cost_network.node[23].content_store 	decision_yes[23] 	0
scalar geant_cost_network.node[23].content_store 	decision_no[23] 	173933
scalar geant_cost_network.node[23].content_store 	decision_ratio[23] 	0
scalar geant_cost_network.node[24].core_layer 	interests[24] 	161021
scalar geant_cost_network.node[24].core_layer 	repo_load[24] 	161021
scalar geant_cost_network.node[24].core_layer 	data[24] 	0
scalar geant_cost_network.node[24].content_store 	p_hit[24] 	0
scalar geant_cost_network.node[24].content_store 	hits[24] 	0
scalar geant_cost_network.node[24].content_store 	misses[24] 	161021
scalar geant_cost_network.node[24].content_store 	decision_yes[24] 	0
scalar geant_cost_network.node[24].content_store 	decision_no[24] 	161021
scalar geant_cost_network.node[24].content_store 	decision_ratio[24] 	0
scalar geant_cost_network.client[5] 	hdistance[5] 	2.5691987165203
scalar geant_cost_network.client[5] 	downloads[5] 	179512
scalar geant_cost_network.client[5] 	avg_time[5] 	0.006761541424
scalar geant_cost_network.client[5] 	interests_sent[5] 	179547
scalar geant_cost_network.client[9] 	hdistance[9] 	2.6400111080256
scalar geant_cost_network.client[9] 	downloads[9] 	180050
scalar geant_cost_network.client[9] 	avg_time[9] 	0.002676142437
scalar geant_cost_network.client[9] 	interests_sent[9] 	180070
scalar geant_cost_network.client[10] 	hdistance[10] 	3.1806610563614
scalar geant_cost_network.client[10] 	downloads[10] 	180620
scalar geant_cost_network.client[10] 	avg_time[10] 	0.003870511679
scalar geant_cost_network.client[10] 	interests_sent[10] 	180638
scalar geant_cost_network.client[12] 	hdistance[12] 	2.8372952779106
scalar geant_cost_network.client[12] 	downloads[12] 	179878
scalar geant_cost_network.client[12] 	avg_time[12] 	0.003231534629
scalar geant_cost_network.client[12] 	interests_sent[12] 	179895
scalar geant_cost_network.client[20] 	hdistance[20] 	2.8176406686472
scalar geant_cost_network.client[20] 	downloads[20] 	180424
scalar geant_cost_network.client[20] 	avg_time[20] 	0.004572894372
scalar geant_cost_network.client[20] 	interests_sent[20] 	180446
