version 2
run General-1194-20140502-03:24:07-10106
attr D costprob0.05
attr F nrr
attr R lru
attr a 0.8
attr configname General
attr csize 1e3
attr ctlg 1e5
attr datetime 20140502-03:24:07
attr experiment General
attr inifile omnetpp.ini
attr iterationvars "$net=three_caches_scenario_3_links, $rep=3, $priceratiovalue=1, $weights=0.2_0.4_0.4, $a=0.8, $ctlg=1e5, $F=nrr, $ttl=1000, $D=costprob0.05, $xi=1, $R=lru, $csize=1e3"
attr iterationvars2 "$net=three_caches_scenario_3_links, $rep=3, $priceratiovalue=1, $weights=0.2_0.4_0.4, $a=0.8, $ctlg=1e5, $F=nrr, $ttl=1000, $D=costprob0.05, $xi=1, $R=lru, $csize=1e3, $repetition=0"
attr measurement "$net=three_caches_scenario_3_links, $rep=3, $priceratiovalue=1, $weights=0.2_0.4_0.4, $a=0.8, $ctlg=1e5, $F=nrr, $ttl=1000, $D=costprob0.05, $xi=1, $R=lru, $csize=1e3"
attr net three_caches_scenario_3_links
attr network networks.${net=three_caches_scenario_3_links}_network
attr priceratiovalue 1
attr processid 10106
attr rep 3
attr repetition 0
attr replication #0
attr resultdir results
attr runnumber 1194
attr seedset 3
attr ttl 1000
attr weights 0.2_0.4_0.4
attr xi 1

scalar . 	a 	0.8
scalar . 	csize 	1e3
scalar . 	ctlg 	1e5
scalar . 	priceratiovalue 	1
scalar . 	rep 	3
scalar . 	ttl 	1000
scalar . 	xi 	1
scalar three_caches_scenario_3_links_network.content_distribution 	repo-0 	4
scalar three_caches_scenario_3_links_network.content_distribution 	repo-1 	5
scalar three_caches_scenario_3_links_network.content_distribution 	repo-2 	6
scalar three_caches_scenario_3_links_network.content_distribution 	client-0 	0
scalar three_caches_scenario_3_links_network.content_distribution 	repo-0_card 	20144
scalar three_caches_scenario_3_links_network.content_distribution 	repo-1_card 	39732
scalar three_caches_scenario_3_links_network.content_distribution 	repo-2_card 	40124
scalar three_caches_scenario_3_links_network.statistics 	p_hit 	0.079086733092087
scalar three_caches_scenario_3_links_network.statistics 	interests 	69164.571428571
scalar three_caches_scenario_3_links_network.statistics 	data 	43484.142857143
scalar three_caches_scenario_3_links_network.statistics 	hdistance 	2.2775042695104
scalar three_caches_scenario_3_links_network.statistics 	avg_time 	0
scalar three_caches_scenario_3_links_network.statistics 	downloads 	179763
scalar three_caches_scenario_3_links_network.statistics 	total_cost 	105022
scalar three_caches_scenario_3_links_network.statistics 	total_replicas 	100000
scalar three_caches_scenario_3_links_network.statistics 	interests_sent 	179763
scalar three_caches_scenario_3_links_network.node[0].core_layer 	interests[0] 	179763
scalar three_caches_scenario_3_links_network.node[0].core_layer 	data[0] 	162916
scalar three_caches_scenario_3_links_network.node[0].core_layer 	repo_int[0] 	141473
scalar three_caches_scenario_3_links_network.node[0].content_store 	p_hit[0] 	0.093717839599918
scalar three_caches_scenario_3_links_network.node[0].content_store 	hits[0] 	16847
scalar three_caches_scenario_3_links_network.node[0].content_store 	misses[0] 	162916
scalar three_caches_scenario_3_links_network.node[0].content_store 	decision_yes[0] 	6582
scalar three_caches_scenario_3_links_network.node[0].content_store 	decision_no[0] 	156334
scalar three_caches_scenario_3_links_network.node[1].core_layer 	interests[1] 	36451
scalar three_caches_scenario_3_links_network.node[1].core_layer 	data[1] 	36451
scalar three_caches_scenario_3_links_network.node[1].content_store 	p_hit[1] 	0
scalar three_caches_scenario_3_links_network.node[1].content_store 	hits[1] 	0
scalar three_caches_scenario_3_links_network.node[1].content_store 	misses[1] 	36451
scalar three_caches_scenario_3_links_network.node[1].content_store 	decision_yes[1] 	0
scalar three_caches_scenario_3_links_network.node[1].content_store 	decision_no[1] 	36451
scalar three_caches_scenario_3_links_network.node[2].core_layer 	interests[2] 	64079
scalar three_caches_scenario_3_links_network.node[2].core_layer 	data[2] 	52838
scalar three_caches_scenario_3_links_network.node[2].content_store 	p_hit[2] 	0.17542408589397
scalar three_caches_scenario_3_links_network.node[2].content_store 	hits[2] 	11241
scalar three_caches_scenario_3_links_network.node[2].content_store 	misses[2] 	52838
scalar three_caches_scenario_3_links_network.node[2].content_store 	decision_yes[2] 	3283
scalar three_caches_scenario_3_links_network.node[2].content_store 	decision_no[2] 	49555
scalar three_caches_scenario_3_links_network.node[3].core_layer 	interests[3] 	62386
scalar three_caches_scenario_3_links_network.node[3].core_layer 	data[3] 	52184
scalar three_caches_scenario_3_links_network.node[3].content_store 	p_hit[3] 	0.16353027922931
scalar three_caches_scenario_3_links_network.node[3].content_store 	hits[3] 	10202
scalar three_caches_scenario_3_links_network.node[3].content_store 	misses[3] 	52184
scalar three_caches_scenario_3_links_network.node[3].content_store 	decision_yes[3] 	3335
scalar three_caches_scenario_3_links_network.node[3].content_store 	decision_no[3] 	48849
scalar three_caches_scenario_3_links_network.node[4].core_layer 	interests[4] 	36451
scalar three_caches_scenario_3_links_network.node[4].core_layer 	repo_load[4] 	36451
scalar three_caches_scenario_3_links_network.node[4].core_layer 	data[4] 	0
scalar three_caches_scenario_3_links_network.node[4].content_store 	p_hit[4] 	0
scalar three_caches_scenario_3_links_network.node[4].content_store 	hits[4] 	0
scalar three_caches_scenario_3_links_network.node[4].content_store 	misses[4] 	36451
scalar three_caches_scenario_3_links_network.node[4].content_store 	decision_yes[4] 	0
scalar three_caches_scenario_3_links_network.node[4].content_store 	decision_no[4] 	36451
scalar three_caches_scenario_3_links_network.node[5].core_layer 	interests[5] 	52838
scalar three_caches_scenario_3_links_network.node[5].core_layer 	repo_load[5] 	52838
scalar three_caches_scenario_3_links_network.node[5].core_layer 	data[5] 	0
scalar three_caches_scenario_3_links_network.node[5].content_store 	p_hit[5] 	0
scalar three_caches_scenario_3_links_network.node[5].content_store 	hits[5] 	0
scalar three_caches_scenario_3_links_network.node[5].content_store 	misses[5] 	52838
scalar three_caches_scenario_3_links_network.node[5].content_store 	decision_yes[5] 	0
scalar three_caches_scenario_3_links_network.node[5].content_store 	decision_no[5] 	52838
scalar three_caches_scenario_3_links_network.node[6].core_layer 	interests[6] 	52184
scalar three_caches_scenario_3_links_network.node[6].core_layer 	repo_load[6] 	52184
scalar three_caches_scenario_3_links_network.node[6].core_layer 	data[6] 	0
scalar three_caches_scenario_3_links_network.node[6].content_store 	p_hit[6] 	0
scalar three_caches_scenario_3_links_network.node[6].content_store 	hits[6] 	0
scalar three_caches_scenario_3_links_network.node[6].content_store 	misses[6] 	52184
scalar three_caches_scenario_3_links_network.node[6].content_store 	decision_yes[6] 	0
scalar three_caches_scenario_3_links_network.node[6].content_store 	decision_no[6] 	52184
scalar three_caches_scenario_3_links_network.client[0] 	hdistance[0] 	2.2775042695104
scalar three_caches_scenario_3_links_network.client[0] 	downloads[0] 	179763
scalar three_caches_scenario_3_links_network.client[0] 	avg_time[0] 	0
scalar three_caches_scenario_3_links_network.client[0] 	interests_sent[0] 	179763
