version 2
run General-1-20140625-19:02:06-12339
attr D costprobprodcorr0.01
attr F spr
attr R lru
attr a 1
attr configname General
attr csize 1e3
attr ctlg 1e5
attr datetime 20140625-19:02:06
attr experiment General
attr inifile omnetpp.ini
attr iterationvars "$net=geant_cost, $rep=1, $priceratiovalue=10, $weights=0.333_0.333_0.334, $lambda=100, $a=1, $ctlg=1e5, $F=spr, $ttl=1000, $D=costprobprodcorr0.01, $xi=0.025, $R=lru, $csize=1e3, $pricebits=0, $mytime=1800"
attr iterationvars2 "$net=geant_cost, $rep=1, $priceratiovalue=10, $weights=0.333_0.333_0.334, $lambda=100, $a=1, $ctlg=1e5, $F=spr, $ttl=1000, $D=costprobprodcorr0.01, $xi=0.025, $R=lru, $csize=1e3, $pricebits=0, $mytime=1800, $repetition=0"
attr lambda 100
attr measurement "$net=geant_cost, $rep=1, $priceratiovalue=10, $weights=0.333_0.333_0.334, $lambda=100, $a=1, $ctlg=1e5, $F=spr, $ttl=1000, $D=costprobprodcorr0.01, $xi=0.025, $R=lru, $csize=1e3, $pricebits=0, $mytime=1800"
attr mytime 1800
attr net geant_cost
attr network "networks.${net=geant_cost, abilene_cost}_network"
attr pricebits 0
attr priceratiovalue 10
attr processid 12339
attr rep 1
attr repetition 0
attr replication #0
attr resultdir results
attr runnumber 1
attr seedset 1
attr ttl 1000
attr weights 0.333_0.333_0.334
attr xi 0.025

scalar . 	a 	1
scalar . 	csize 	1e3
scalar . 	ctlg 	1e5
scalar . 	lambda 	100
scalar . 	mytime 	1800
scalar . 	pricebits 	0
scalar . 	priceratiovalue 	10
scalar . 	rep 	1
scalar . 	ttl 	1000
scalar . 	xi 	0.025
scalar geant_cost_network.content_distribution 	repo-0 	22
scalar geant_cost_network.content_distribution 	repo-1 	23
scalar geant_cost_network.content_distribution 	repo-2 	24
scalar geant_cost_network.content_distribution 	client-0 	20
scalar geant_cost_network.content_distribution 	client-1 	10
scalar geant_cost_network.content_distribution 	client-2 	12
scalar geant_cost_network.content_distribution 	client-3 	9
scalar geant_cost_network.content_distribution 	client-4 	5
scalar geant_cost_network.content_distribution 	repo-0_card 	33396
scalar geant_cost_network.content_distribution 	repo-1_card 	33039
scalar geant_cost_network.content_distribution 	repo-2_card 	33565
scalar geant_cost_network.statistics 	repo_popularity[0] 	0.28686251265602
scalar geant_cost_network.statistics 	repo_popularity[1] 	0.2886063426465
scalar geant_cost_network.statistics 	repo_popularity[2] 	0.42453114469748
scalar geant_cost_network.statistics 	stabilization_time 	36060
scalar geant_cost_network.node[7].face$o[4].channel 	price[7] 	0
scalar geant_cost_network.node[7].face$o[4].channel 	represented_price[7] 	0
scalar geant_cost_network.node[8].face$o[3].channel 	price[8] 	0
scalar geant_cost_network.node[8].face$o[3].channel 	represented_price[8] 	0
scalar geant_cost_network.node[21].face$o[5].channel 	price[21] 	0
scalar geant_cost_network.node[21].face$o[5].channel 	represented_price[21] 	0
scalar geant_cost_network.node[22].face$o[1].channel 	price[22] 	0
scalar geant_cost_network.node[22].face$o[1].channel 	represented_price[22] 	0
scalar geant_cost_network.node[23].face$o[1].channel 	price[23] 	1
scalar geant_cost_network.node[23].face$o[1].channel 	represented_price[23] 	1
scalar geant_cost_network.node[24].face$o[1].channel 	price[24] 	10
scalar geant_cost_network.node[24].face$o[1].channel 	represented_price[24] 	10
scalar geant_cost_network.statistics 	p_hit 	0.090068908441355
scalar geant_cost_network.statistics 	interests 	141904.24
scalar geant_cost_network.statistics 	data 	105891
scalar geant_cost_network.statistics 	hdistance 	3.616348381677
scalar geant_cost_network.statistics 	avg_time 	0.005973126353
scalar geant_cost_network.statistics 	downloads 	894306
scalar geant_cost_network.statistics 	total_cost 	1723637
scalar geant_cost_network.statistics 	total_replicas 	100000
scalar geant_cost_network.statistics 	inner_hit 	0.36297419451508
scalar geant_cost_network.statistics 	interests_sent 	900331
scalar geant_cost_network.node[0].core_layer 	interests[0] 	0
scalar geant_cost_network.node[0].core_layer 	data[0] 	0
scalar geant_cost_network.node[0].core_layer 	repo_int[0] 	569696
scalar geant_cost_network.node[0].content_store 	p_hit[0] 	-nan
scalar geant_cost_network.node[0].content_store 	hits[0] 	0
scalar geant_cost_network.node[0].content_store 	misses[0] 	0
scalar geant_cost_network.node[0].content_store 	decision_yes[0] 	0
scalar geant_cost_network.node[0].content_store 	decision_no[0] 	0
scalar geant_cost_network.node[0].content_store 	decision_ratio[0] 	0
scalar geant_cost_network.node[0].content_store 	correction_factor[0] 	0.014560475784388
scalar geant_cost_network.node[0].content_store 	xi[0] 	0.025
scalar geant_cost_network.node[1].core_layer 	interests[1] 	0
scalar geant_cost_network.node[1].core_layer 	data[1] 	0
scalar geant_cost_network.node[1].content_store 	p_hit[1] 	-nan
scalar geant_cost_network.node[1].content_store 	hits[1] 	0
scalar geant_cost_network.node[1].content_store 	misses[1] 	0
scalar geant_cost_network.node[1].content_store 	decision_yes[1] 	0
scalar geant_cost_network.node[1].content_store 	decision_no[1] 	0
scalar geant_cost_network.node[1].content_store 	decision_ratio[1] 	0
scalar geant_cost_network.node[1].content_store 	correction_factor[1] 	0.014560475784388
scalar geant_cost_network.node[1].content_store 	xi[1] 	0.025
scalar geant_cost_network.node[2].core_layer 	interests[2] 	0
scalar geant_cost_network.node[2].core_layer 	data[2] 	0
scalar geant_cost_network.node[2].content_store 	p_hit[2] 	-nan
scalar geant_cost_network.node[2].content_store 	hits[2] 	0
scalar geant_cost_network.node[2].content_store 	misses[2] 	0
scalar geant_cost_network.node[2].content_store 	decision_yes[2] 	0
scalar geant_cost_network.node[2].content_store 	decision_no[2] 	0
scalar geant_cost_network.node[2].content_store 	decision_ratio[2] 	0
scalar geant_cost_network.node[2].content_store 	correction_factor[2] 	0.014560475784388
scalar geant_cost_network.node[2].content_store 	xi[2] 	0.025
scalar geant_cost_network.node[3].core_layer 	interests[3] 	229320
scalar geant_cost_network.node[3].core_layer 	data[3] 	217723
scalar geant_cost_network.node[3].content_store 	p_hit[3] 	0.05056253270539
scalar geant_cost_network.node[3].content_store 	hits[3] 	11595
scalar geant_cost_network.node[3].content_store 	misses[3] 	217725
scalar geant_cost_network.node[3].content_store 	decision_yes[3] 	1358
scalar geant_cost_network.node[3].content_store 	decision_no[3] 	216365
scalar geant_cost_network.node[3].content_store 	decision_ratio[3] 	0.0062372831533646
scalar geant_cost_network.node[3].content_store 	correction_factor[3] 	0.014560475784388
scalar geant_cost_network.node[3].content_store 	xi[3] 	0.025
scalar geant_cost_network.node[4].core_layer 	interests[4] 	308117
scalar geant_cost_network.node[4].core_layer 	data[4] 	296402
scalar geant_cost_network.node[4].content_store 	p_hit[4] 	0.037810312316425
scalar geant_cost_network.node[4].content_store 	hits[4] 	11650
scalar geant_cost_network.node[4].content_store 	misses[4] 	296467
scalar geant_cost_network.node[4].content_store 	decision_yes[4] 	1853
scalar geant_cost_network.node[4].content_store 	decision_no[4] 	294549
scalar geant_cost_network.node[4].content_store 	decision_ratio[4] 	0.0062516447257441
scalar geant_cost_network.node[4].content_store 	correction_factor[4] 	0.014560475784388
scalar geant_cost_network.node[4].content_store 	xi[4] 	0.025
scalar geant_cost_network.node[5].core_layer 	interests[5] 	179797
scalar geant_cost_network.node[5].core_layer 	data[5] 	172985
scalar geant_cost_network.node[5].content_store 	p_hit[5] 	0.0263352558719
scalar geant_cost_network.node[5].content_store 	hits[5] 	4735
scalar geant_cost_network.node[5].content_store 	misses[5] 	175062
scalar geant_cost_network.node[5].content_store 	decision_yes[5] 	896
scalar geant_cost_network.node[5].content_store 	decision_no[5] 	172089
scalar geant_cost_network.node[5].content_store 	decision_ratio[5] 	0.0051796398531665
scalar geant_cost_network.node[5].content_store 	correction_factor[5] 	0.014560475784388
scalar geant_cost_network.node[5].content_store 	xi[5] 	0.025
scalar geant_cost_network.node[6].core_layer 	interests[6] 	101817
scalar geant_cost_network.node[6].core_layer 	data[6] 	95104
scalar geant_cost_network.node[6].content_store 	p_hit[6] 	0.06593201528232
scalar geant_cost_network.node[6].content_store 	hits[6] 	6713
scalar geant_cost_network.node[6].content_store 	misses[6] 	95104
scalar geant_cost_network.node[6].content_store 	decision_yes[6] 	453
scalar geant_cost_network.node[6].content_store 	decision_no[6] 	94651
scalar geant_cost_network.node[6].content_store 	decision_ratio[6] 	0.0047632065948856
scalar geant_cost_network.node[6].content_store 	correction_factor[6] 	0.014560475784388
scalar geant_cost_network.node[6].content_store 	xi[6] 	0.025
scalar geant_cost_network.node[7].core_layer 	interests[7] 	339926
scalar geant_cost_network.node[7].core_layer 	data[7] 	327364
scalar geant_cost_network.node[7].content_store 	p_hit[7] 	0.036934509275548
scalar geant_cost_network.node[7].content_store 	hits[7] 	12555
scalar geant_cost_network.node[7].content_store 	misses[7] 	327371
scalar geant_cost_network.node[7].content_store 	decision_yes[7] 	834
scalar geant_cost_network.node[7].content_store 	decision_no[7] 	326530
scalar geant_cost_network.node[7].content_store 	decision_ratio[7] 	0.0025476228296331
scalar geant_cost_network.node[7].content_store 	correction_factor[7] 	0.014560475784388
scalar geant_cost_network.node[7].content_store 	xi[7] 	0.025
scalar geant_cost_network.node[8].core_layer 	interests[8] 	294451
scalar geant_cost_network.node[8].core_layer 	data[8] 	259222
scalar geant_cost_network.node[8].content_store 	p_hit[8] 	0.11964299662762
scalar geant_cost_network.node[8].content_store 	hits[8] 	35229
scalar geant_cost_network.node[8].content_store 	misses[8] 	259222
scalar geant_cost_network.node[8].content_store 	decision_yes[8] 	2267
scalar geant_cost_network.node[8].content_store 	decision_no[8] 	256955
scalar geant_cost_network.node[8].content_store 	decision_ratio[8] 	0.0087453996960135
scalar geant_cost_network.node[8].content_store 	correction_factor[8] 	0.014560475784388
scalar geant_cost_network.node[8].content_store 	xi[8] 	0.025
scalar geant_cost_network.node[9].core_layer 	interests[9] 	405889
scalar geant_cost_network.node[9].core_layer 	data[9] 	360568
scalar geant_cost_network.node[9].content_store 	p_hit[9] 	0.10375004003558
scalar geant_cost_network.node[9].content_store 	hits[9] 	42111
scalar geant_cost_network.node[9].content_store 	misses[9] 	363778
scalar geant_cost_network.node[9].content_store 	decision_yes[9] 	2403
scalar geant_cost_network.node[9].content_store 	decision_no[9] 	358165
scalar geant_cost_network.node[9].content_store 	decision_ratio[9] 	0.0066644849237869
scalar geant_cost_network.node[9].content_store 	correction_factor[9] 	0.014560475784388
scalar geant_cost_network.node[9].content_store 	xi[9] 	0.025
scalar geant_cost_network.node[10].core_layer 	interests[10] 	180099
scalar geant_cost_network.node[10].core_layer 	data[10] 	174768
scalar geant_cost_network.node[10].content_store 	p_hit[10] 	0.02141044647666
scalar geant_cost_network.node[10].content_store 	hits[10] 	3856
scalar geant_cost_network.node[10].content_store 	misses[10] 	176243
scalar geant_cost_network.node[10].content_store 	decision_yes[10] 	883
scalar geant_cost_network.node[10].content_store 	decision_no[10] 	173885
scalar geant_cost_network.node[10].content_store 	decision_ratio[10] 	0.005052412340932
scalar geant_cost_network.node[10].content_store 	correction_factor[10] 	0.014560475784388
scalar geant_cost_network.node[10].content_store 	xi[10] 	0.025
scalar geant_cost_network.node[11].core_layer 	interests[11] 	0
scalar geant_cost_network.node[11].core_layer 	data[11] 	0
scalar geant_cost_network.node[11].content_store 	p_hit[11] 	-nan
scalar geant_cost_network.node[11].content_store 	hits[11] 	0
scalar geant_cost_network.node[11].content_store 	misses[11] 	0
scalar geant_cost_network.node[11].content_store 	decision_yes[11] 	0
scalar geant_cost_network.node[11].content_store 	decision_no[11] 	0
scalar geant_cost_network.node[11].content_store 	decision_ratio[11] 	0
scalar geant_cost_network.node[11].content_store 	correction_factor[11] 	0.014560475784388
scalar geant_cost_network.node[11].content_store 	xi[11] 	0.025
scalar geant_cost_network.node[12].core_layer 	interests[12] 	316066
scalar geant_cost_network.node[12].core_layer 	data[12] 	280499
scalar geant_cost_network.node[12].content_store 	p_hit[12] 	0.099998101662311
scalar geant_cost_network.node[12].content_store 	hits[12] 	31606
scalar geant_cost_network.node[12].content_store 	misses[12] 	284460
scalar geant_cost_network.node[12].content_store 	decision_yes[12] 	1893
scalar geant_cost_network.node[12].content_store 	decision_no[12] 	278606
scalar geant_cost_network.node[12].content_store 	decision_ratio[12] 	0.006748687161095
scalar geant_cost_network.node[12].content_store 	correction_factor[12] 	0.014560475784388
scalar geant_cost_network.node[12].content_store 	xi[12] 	0.025
scalar geant_cost_network.node[13].core_layer 	interests[13] 	0
scalar geant_cost_network.node[13].core_layer 	data[13] 	0
scalar geant_cost_network.node[13].content_store 	p_hit[13] 	-nan
scalar geant_cost_network.node[13].content_store 	hits[13] 	0
scalar geant_cost_network.node[13].content_store 	misses[13] 	0
scalar geant_cost_network.node[13].content_store 	decision_yes[13] 	0
scalar geant_cost_network.node[13].content_store 	decision_no[13] 	0
scalar geant_cost_network.node[13].content_store 	decision_ratio[13] 	0
scalar geant_cost_network.node[13].content_store 	correction_factor[13] 	0.014560475784388
scalar geant_cost_network.node[13].content_store 	xi[13] 	0.025
scalar geant_cost_network.node[14].core_layer 	interests[14] 	71167
scalar geant_cost_network.node[14].core_layer 	data[14] 	58248
scalar geant_cost_network.node[14].content_store 	p_hit[14] 	0.18153076566386
scalar geant_cost_network.node[14].content_store 	hits[14] 	12919
scalar geant_cost_network.node[14].content_store 	misses[14] 	58248
scalar geant_cost_network.node[14].content_store 	decision_yes[14] 	492
scalar geant_cost_network.node[14].content_store 	decision_no[14] 	57756
scalar geant_cost_network.node[14].content_store 	decision_ratio[14] 	0.0084466419447878
scalar geant_cost_network.node[14].content_store 	correction_factor[14] 	0.014560475784388
scalar geant_cost_network.node[14].content_store 	xi[14] 	0.025
scalar geant_cost_network.node[15].core_layer 	interests[15] 	0
scalar geant_cost_network.node[15].core_layer 	data[15] 	0
scalar geant_cost_network.node[15].content_store 	p_hit[15] 	-nan
scalar geant_cost_network.node[15].content_store 	hits[15] 	0
scalar geant_cost_network.node[15].content_store 	misses[15] 	0
scalar geant_cost_network.node[15].content_store 	decision_yes[15] 	0
scalar geant_cost_network.node[15].content_store 	decision_no[15] 	0
scalar geant_cost_network.node[15].content_store 	decision_ratio[15] 	0
scalar geant_cost_network.node[15].content_store 	correction_factor[15] 	0.014560475784388
scalar geant_cost_network.node[15].content_store 	xi[15] 	0.025
scalar geant_cost_network.node[16].core_layer 	interests[16] 	0
scalar geant_cost_network.node[16].core_layer 	data[16] 	0
scalar geant_cost_network.node[16].content_store 	p_hit[16] 	-nan
scalar geant_cost_network.node[16].content_store 	hits[16] 	0
scalar geant_cost_network.node[16].content_store 	misses[16] 	0
scalar geant_cost_network.node[16].content_store 	decision_yes[16] 	0
scalar geant_cost_network.node[16].content_store 	decision_no[16] 	0
scalar geant_cost_network.node[16].content_store 	decision_ratio[16] 	0
scalar geant_cost_network.node[16].content_store 	correction_factor[16] 	0.014560475784388
scalar geant_cost_network.node[16].content_store 	xi[16] 	0.025
scalar geant_cost_network.node[17].core_layer 	interests[17] 	0
scalar geant_cost_network.node[17].core_layer 	data[17] 	0
scalar geant_cost_network.node[17].content_store 	p_hit[17] 	-nan
scalar geant_cost_network.node[17].content_store 	hits[17] 	0
scalar geant_cost_network.node[17].content_store 	misses[17] 	0
scalar geant_cost_network.node[17].content_store 	decision_yes[17] 	0
scalar geant_cost_network.node[17].content_store 	decision_no[17] 	0
scalar geant_cost_network.node[17].content_store 	decision_ratio[17] 	0
scalar geant_cost_network.node[17].content_store 	correction_factor[17] 	0.014560475784388
scalar geant_cost_network.node[17].content_store 	xi[17] 	0.025
scalar geant_cost_network.node[18].core_layer 	interests[18] 	95559
scalar geant_cost_network.node[18].core_layer 	data[18] 	90392
scalar geant_cost_network.node[18].content_store 	p_hit[18] 	0.054071306731967
scalar geant_cost_network.node[18].content_store 	hits[18] 	5167
scalar geant_cost_network.node[18].content_store 	misses[18] 	90392
scalar geant_cost_network.node[18].content_store 	decision_yes[18] 	403
scalar geant_cost_network.node[18].content_store 	decision_no[18] 	89989
scalar geant_cost_network.node[18].content_store 	decision_ratio[18] 	0.0044583591468272
scalar geant_cost_network.node[18].content_store 	correction_factor[18] 	0.014560475784388
scalar geant_cost_network.node[18].content_store 	xi[18] 	0.025
scalar geant_cost_network.node[19].core_layer 	interests[19] 	0
scalar geant_cost_network.node[19].core_layer 	data[19] 	0
scalar geant_cost_network.node[19].content_store 	p_hit[19] 	-nan
scalar geant_cost_network.node[19].content_store 	hits[19] 	0
scalar geant_cost_network.node[19].content_store 	misses[19] 	0
scalar geant_cost_network.node[19].content_store 	decision_yes[19] 	0
scalar geant_cost_network.node[19].content_store 	decision_no[19] 	0
scalar geant_cost_network.node[19].content_store 	decision_ratio[19] 	0
scalar geant_cost_network.node[19].content_store 	correction_factor[19] 	0.014560475784388
scalar geant_cost_network.node[19].content_store 	xi[19] 	0.025
scalar geant_cost_network.node[20].core_layer 	interests[20] 	180808
scalar geant_cost_network.node[20].core_layer 	data[20] 	157218
scalar geant_cost_network.node[20].content_store 	p_hit[20] 	0.1287608955356
scalar geant_cost_network.node[20].content_store 	hits[20] 	23281
scalar geant_cost_network.node[20].content_store 	misses[20] 	157527
scalar geant_cost_network.node[20].content_store 	decision_yes[20] 	971
scalar geant_cost_network.node[20].content_store 	decision_no[20] 	156247
scalar geant_cost_network.node[20].content_store 	decision_ratio[20] 	0.0061761375923876
scalar geant_cost_network.node[20].content_store 	correction_factor[20] 	0.014560475784388
scalar geant_cost_network.node[20].content_store 	xi[20] 	0.025
scalar geant_cost_network.node[21].core_layer 	interests[21] 	274894
scalar geant_cost_network.node[21].core_layer 	data[21] 	156782
scalar geant_cost_network.node[21].content_store 	p_hit[21] 	0.42966379768202
scalar geant_cost_network.node[21].content_store 	hits[21] 	118112
scalar geant_cost_network.node[21].content_store 	misses[21] 	156782
scalar geant_cost_network.node[21].content_store 	decision_yes[21] 	2435
scalar geant_cost_network.node[21].content_store 	decision_no[21] 	154347
scalar geant_cost_network.node[21].content_store 	decision_ratio[21] 	0.015531119643837
scalar geant_cost_network.node[21].content_store 	correction_factor[21] 	0.014560475784388
scalar geant_cost_network.node[21].content_store 	xi[21] 	0.025
scalar geant_cost_network.node[22].core_layer 	interests[22] 	257097
scalar geant_cost_network.node[22].core_layer 	repo_load[22] 	257097
scalar geant_cost_network.node[22].core_layer 	data[22] 	0
scalar geant_cost_network.node[22].content_store 	p_hit[22] 	0
scalar geant_cost_network.node[22].content_store 	hits[22] 	0
scalar geant_cost_network.node[22].content_store 	misses[22] 	257097
scalar geant_cost_network.node[22].content_store 	decision_yes[22] 	0
scalar geant_cost_network.node[22].content_store 	decision_no[22] 	257097
scalar geant_cost_network.node[22].content_store 	decision_ratio[22] 	0
scalar geant_cost_network.node[23].core_layer 	interests[23] 	155817
scalar geant_cost_network.node[23].core_layer 	repo_load[23] 	155817
scalar geant_cost_network.node[23].core_layer 	data[23] 	0
scalar geant_cost_network.node[23].content_store 	p_hit[23] 	0
scalar geant_cost_network.node[23].content_store 	hits[23] 	0
scalar geant_cost_network.node[23].content_store 	misses[23] 	155817
scalar geant_cost_network.node[23].content_store 	decision_yes[23] 	0
scalar geant_cost_network.node[23].content_store 	decision_no[23] 	155817
scalar geant_cost_network.node[23].content_store 	decision_ratio[23] 	0
scalar geant_cost_network.node[24].core_layer 	interests[24] 	156782
scalar geant_cost_network.node[24].core_layer 	repo_load[24] 	156782
scalar geant_cost_network.node[24].core_layer 	data[24] 	0
scalar geant_cost_network.node[24].content_store 	p_hit[24] 	0
scalar geant_cost_network.node[24].content_store 	hits[24] 	0
scalar geant_cost_network.node[24].content_store 	misses[24] 	156782
scalar geant_cost_network.node[24].content_store 	decision_yes[24] 	0
scalar geant_cost_network.node[24].content_store 	decision_no[24] 	156782
scalar geant_cost_network.node[24].content_store 	decision_ratio[24] 	0
scalar geant_cost_network.client[5] 	hdistance[5] 	3.2981262660365
scalar geant_cost_network.client[5] 	downloads[5] 	177720
scalar geant_cost_network.client[5] 	avg_time[5] 	0.009891488687
scalar geant_cost_network.client[5] 	interests_sent[5] 	179797
scalar geant_cost_network.client[9] 	hdistance[9] 	3.4083093754545
scalar geant_cost_network.client[9] 	downloads[9] 	178786
scalar geant_cost_network.client[9] 	avg_time[9] 	0.003899685304
scalar geant_cost_network.client[9] 	interests_sent[9] 	179943
scalar geant_cost_network.client[10] 	hdistance[10] 	4.3582721246865
scalar geant_cost_network.client[10] 	downloads[10] 	178624
scalar geant_cost_network.client[10] 	avg_time[10] 	0.005826537198
scalar geant_cost_network.client[10] 	interests_sent[10] 	180099
scalar geant_cost_network.client[12] 	hdistance[12] 	3.6754366818337
scalar geant_cost_network.client[12] 	downloads[12] 	178677
scalar geant_cost_network.client[12] 	avg_time[12] 	0.004677054193
scalar geant_cost_network.client[12] 	interests_sent[12] 	179684
scalar geant_cost_network.client[20] 	hdistance[20] 	3.3415974603737
scalar geant_cost_network.client[20] 	downloads[20] 	180499
scalar geant_cost_network.client[20] 	avg_time[20] 	0.005570866383
scalar geant_cost_network.client[20] 	interests_sent[20] 	180808
