version 2
run General-2368-20140502-05:40:05-11318
attr D costprob0.01
attr F nrr
attr R lru
attr a 1.2
attr configname General
attr csize 1e3
attr ctlg 1e5
attr datetime 20140502-05:40:05
attr experiment General
attr inifile omnetpp.ini
attr iterationvars "$net=three_caches_scenario_3_links, $rep=5, $priceratiovalue=1, $weights=0.2_0.4_0.4, $a=1.2, $ctlg=1e5, $F=nrr, $ttl=1000, $D=costprob0.01, $xi=1, $R=lru, $csize=1e3"
attr iterationvars2 "$net=three_caches_scenario_3_links, $rep=5, $priceratiovalue=1, $weights=0.2_0.4_0.4, $a=1.2, $ctlg=1e5, $F=nrr, $ttl=1000, $D=costprob0.01, $xi=1, $R=lru, $csize=1e3, $repetition=0"
attr measurement "$net=three_caches_scenario_3_links, $rep=5, $priceratiovalue=1, $weights=0.2_0.4_0.4, $a=1.2, $ctlg=1e5, $F=nrr, $ttl=1000, $D=costprob0.01, $xi=1, $R=lru, $csize=1e3"
attr net three_caches_scenario_3_links
attr network networks.${net=three_caches_scenario_3_links}_network
attr priceratiovalue 1
attr processid 11318
attr rep 5
attr repetition 0
attr replication #0
attr resultdir results
attr runnumber 2368
attr seedset 5
attr ttl 1000
attr weights 0.2_0.4_0.4
attr xi 1

scalar . 	a 	1.2
scalar . 	csize 	1e3
scalar . 	ctlg 	1e5
scalar . 	priceratiovalue 	1
scalar . 	rep 	5
scalar . 	ttl 	1000
scalar . 	xi 	1
scalar three_caches_scenario_3_links_network.content_distribution 	repo-0 	4
scalar three_caches_scenario_3_links_network.content_distribution 	repo-1 	5
scalar three_caches_scenario_3_links_network.content_distribution 	repo-2 	6
scalar three_caches_scenario_3_links_network.content_distribution 	client-0 	0
scalar three_caches_scenario_3_links_network.content_distribution 	repo-0_card 	19937
scalar three_caches_scenario_3_links_network.content_distribution 	repo-1_card 	40032
scalar three_caches_scenario_3_links_network.content_distribution 	repo-2_card 	40031
scalar three_caches_scenario_3_links_network.statistics 	p_hit 	0.15556998952663
scalar three_caches_scenario_3_links_network.statistics 	interests 	63562.571428571
scalar three_caches_scenario_3_links_network.statistics 	data 	37835
scalar three_caches_scenario_3_links_network.statistics 	hdistance 	1.6087965662186
scalar three_caches_scenario_3_links_network.statistics 	avg_time 	0
scalar three_caches_scenario_3_links_network.statistics 	downloads 	180093
scalar three_caches_scenario_3_links_network.statistics 	total_cost 	24888
scalar three_caches_scenario_3_links_network.statistics 	total_replicas 	100000
scalar three_caches_scenario_3_links_network.statistics 	interests_sent 	180093
scalar three_caches_scenario_3_links_network.node[0].core_layer 	interests[0] 	180093
scalar three_caches_scenario_3_links_network.node[0].core_layer 	data[0] 	153971
scalar three_caches_scenario_3_links_network.node[0].core_layer 	repo_int[0] 	110874
scalar three_caches_scenario_3_links_network.node[0].content_store 	p_hit[0] 	0.14504728112697
scalar three_caches_scenario_3_links_network.node[0].content_store 	hits[0] 	26122
scalar three_caches_scenario_3_links_network.node[0].content_store 	misses[0] 	153971
scalar three_caches_scenario_3_links_network.node[0].content_store 	decision_yes[0] 	326
scalar three_caches_scenario_3_links_network.node[0].content_store 	decision_no[0] 	153645
scalar three_caches_scenario_3_links_network.node[1].core_layer 	interests[1] 	85986
scalar three_caches_scenario_3_links_network.node[1].core_layer 	data[1] 	85986
scalar three_caches_scenario_3_links_network.node[1].content_store 	p_hit[1] 	0
scalar three_caches_scenario_3_links_network.node[1].content_store 	hits[1] 	0
scalar three_caches_scenario_3_links_network.node[1].content_store 	misses[1] 	85986
scalar three_caches_scenario_3_links_network.node[1].content_store 	decision_yes[1] 	0
scalar three_caches_scenario_3_links_network.node[1].content_store 	decision_no[1] 	85986
scalar three_caches_scenario_3_links_network.node[2].core_layer 	interests[2] 	28096
scalar three_caches_scenario_3_links_network.node[2].core_layer 	data[2] 	12373
scalar three_caches_scenario_3_links_network.node[2].content_store 	p_hit[2] 	0.55961702733485
scalar three_caches_scenario_3_links_network.node[2].content_store 	hits[2] 	15723
scalar three_caches_scenario_3_links_network.node[2].content_store 	misses[2] 	12373
scalar three_caches_scenario_3_links_network.node[2].content_store 	decision_yes[2] 	149
scalar three_caches_scenario_3_links_network.node[2].content_store 	decision_no[2] 	12224
scalar three_caches_scenario_3_links_network.node[3].core_layer 	interests[3] 	39889
scalar three_caches_scenario_3_links_network.node[3].core_layer 	data[3] 	12515
scalar three_caches_scenario_3_links_network.node[3].content_store 	p_hit[3] 	0.68625435583745
scalar three_caches_scenario_3_links_network.node[3].content_store 	hits[3] 	27374
scalar three_caches_scenario_3_links_network.node[3].content_store 	misses[3] 	12515
scalar three_caches_scenario_3_links_network.node[3].content_store 	decision_yes[3] 	156
scalar three_caches_scenario_3_links_network.node[3].content_store 	decision_no[3] 	12359
scalar three_caches_scenario_3_links_network.node[4].core_layer 	interests[4] 	85986
scalar three_caches_scenario_3_links_network.node[4].core_layer 	repo_load[4] 	85986
scalar three_caches_scenario_3_links_network.node[4].core_layer 	data[4] 	0
scalar three_caches_scenario_3_links_network.node[4].content_store 	p_hit[4] 	0
scalar three_caches_scenario_3_links_network.node[4].content_store 	hits[4] 	0
scalar three_caches_scenario_3_links_network.node[4].content_store 	misses[4] 	85986
scalar three_caches_scenario_3_links_network.node[4].content_store 	decision_yes[4] 	0
scalar three_caches_scenario_3_links_network.node[4].content_store 	decision_no[4] 	85986
scalar three_caches_scenario_3_links_network.node[5].core_layer 	interests[5] 	12373
scalar three_caches_scenario_3_links_network.node[5].core_layer 	repo_load[5] 	12373
scalar three_caches_scenario_3_links_network.node[5].core_layer 	data[5] 	0
scalar three_caches_scenario_3_links_network.node[5].content_store 	p_hit[5] 	0
scalar three_caches_scenario_3_links_network.node[5].content_store 	hits[5] 	0
scalar three_caches_scenario_3_links_network.node[5].content_store 	misses[5] 	12373
scalar three_caches_scenario_3_links_network.node[5].content_store 	decision_yes[5] 	0
scalar three_caches_scenario_3_links_network.node[5].content_store 	decision_no[5] 	12373
scalar three_caches_scenario_3_links_network.node[6].core_layer 	interests[6] 	12515
scalar three_caches_scenario_3_links_network.node[6].core_layer 	repo_load[6] 	12515
scalar three_caches_scenario_3_links_network.node[6].core_layer 	data[6] 	0
scalar three_caches_scenario_3_links_network.node[6].content_store 	p_hit[6] 	0
scalar three_caches_scenario_3_links_network.node[6].content_store 	hits[6] 	0
scalar three_caches_scenario_3_links_network.node[6].content_store 	misses[6] 	12515
scalar three_caches_scenario_3_links_network.node[6].content_store 	decision_yes[6] 	0
scalar three_caches_scenario_3_links_network.node[6].content_store 	decision_no[6] 	12515
scalar three_caches_scenario_3_links_network.client[0] 	hdistance[0] 	1.6087965662186
scalar three_caches_scenario_3_links_network.client[0] 	downloads[0] 	180093
scalar three_caches_scenario_3_links_network.client[0] 	avg_time[0] 	0
scalar three_caches_scenario_3_links_network.client[0] 	interests_sent[0] 	180093
