version 2
run General-1552-20140421-20:37:08-16316
attr D costprob0.1
attr F nrr
attr R lru
attr a 0.8
attr configname General
attr csize 10
attr ctlg 10^3
attr datetime 20140421-20:37:08
attr experiment General
attr inifile omnetpp.ini
attr iterationvars "$net=simple_scenario, $rep=31, $priceratiovalue=9, $a=0.8, $ctlg=10^3, $F=nrr, $ttl=1000, $D=costprob0.1, $R=lru, $csize=10"
attr iterationvars2 "$net=simple_scenario, $rep=31, $priceratiovalue=9, $a=0.8, $ctlg=10^3, $F=nrr, $ttl=1000, $D=costprob0.1, $R=lru, $csize=10, $repetition=0"
attr measurement "$net=simple_scenario, $rep=31, $priceratiovalue=9, $a=0.8, $ctlg=10^3, $F=nrr, $ttl=1000, $D=costprob0.1, $R=lru, $csize=10"
attr net simple_scenario
attr network networks.${net=simple_scenario}_network
attr priceratiovalue 9
attr processid 16316
attr rep 31
attr repetition 0
attr replication #0
attr resultdir results
attr runnumber 1552
attr seedset 31
attr ttl 1000

scalar . 	a 	0.8
scalar . 	csize 	10
scalar . 	priceratiovalue 	9
scalar . 	rep 	31
scalar . 	ttl 	1000
scalar simple_scenario_network.content_distribution 	repo-0 	3
scalar simple_scenario_network.content_distribution 	repo-1 	4
scalar simple_scenario_network.content_distribution 	client-0 	0
scalar simple_scenario_network.content_distribution 	repo-0_card 	521
scalar simple_scenario_network.content_distribution 	repo-1_card 	479
scalar simple_scenario_network.statistics 	p_hit 	0.092653732487542
scalar simple_scenario_network.statistics 	interests 	97045.2
scalar simple_scenario_network.statistics 	data 	61033.8
scalar simple_scenario_network.statistics 	hdistance 	2.4451590329729
scalar simple_scenario_network.statistics 	avg_time 	0.001997926116
scalar simple_scenario_network.statistics 	downloads 	180057
scalar simple_scenario_network.statistics 	total_cost 	61567
scalar simple_scenario_network.node[0].core_layer 	interests[0] 	180057
scalar simple_scenario_network.node[0].core_layer 	data[0] 	170070
scalar simple_scenario_network.node[0].core_layer 	repo_int[0] 	135099
scalar simple_scenario_network.node[0].content_store 	p_hit[0] 	0.055465769173095
scalar simple_scenario_network.node[0].content_store 	hits[0] 	9987
scalar simple_scenario_network.node[0].content_store 	misses[0] 	170070
scalar simple_scenario_network.node[1].core_layer 	interests[1] 	103679
scalar simple_scenario_network.node[1].core_layer 	data[1] 	75026
scalar simple_scenario_network.node[1].content_store 	p_hit[1] 	0.27636261923823
scalar simple_scenario_network.node[1].content_store 	hits[1] 	28653
scalar simple_scenario_network.node[1].content_store 	misses[1] 	75026
scalar simple_scenario_network.node[2].core_layer 	interests[2] 	66391
scalar simple_scenario_network.node[2].core_layer 	data[2] 	60073
scalar simple_scenario_network.node[2].content_store 	p_hit[2] 	0.095163501076953
scalar simple_scenario_network.node[2].content_store 	hits[2] 	6318
scalar simple_scenario_network.node[2].content_store 	misses[2] 	60073
scalar simple_scenario_network.node[3].core_layer 	interests[3] 	75026
scalar simple_scenario_network.node[3].core_layer 	repo_load[3] 	75026
scalar simple_scenario_network.node[3].core_layer 	data[3] 	0
scalar simple_scenario_network.node[3].content_store 	p_hit[3] 	0
scalar simple_scenario_network.node[3].content_store 	hits[3] 	0
scalar simple_scenario_network.node[3].content_store 	misses[3] 	75026
scalar simple_scenario_network.node[4].core_layer 	interests[4] 	60073
scalar simple_scenario_network.node[4].core_layer 	repo_load[4] 	60073
scalar simple_scenario_network.node[4].core_layer 	data[4] 	0
scalar simple_scenario_network.node[4].content_store 	p_hit[4] 	0
scalar simple_scenario_network.node[4].content_store 	hits[4] 	0
scalar simple_scenario_network.node[4].content_store 	misses[4] 	60073
scalar simple_scenario_network.client[0] 	hdistance[0] 	2.4451590329729
scalar simple_scenario_network.client[0] 	downloads[0] 	180057
scalar simple_scenario_network.client[0] 	avg_time[0] 	0.001997926116
