version 2
run General-412-20140421-20:10:48-15082
attr D costprob0.1
attr F nrr
attr R lru
attr a 0.8
attr configname General
attr csize 10
attr ctlg 10^3
attr datetime 20140421-20:10:48
attr experiment General
attr inifile omnetpp.ini
attr iterationvars "$net=simple_scenario, $rep=12, $priceratiovalue=9, $a=0.8, $ctlg=10^3, $F=nrr, $ttl=1000, $D=costprob0.1, $R=lru, $csize=10"
attr iterationvars2 "$net=simple_scenario, $rep=12, $priceratiovalue=9, $a=0.8, $ctlg=10^3, $F=nrr, $ttl=1000, $D=costprob0.1, $R=lru, $csize=10, $repetition=0"
attr measurement "$net=simple_scenario, $rep=12, $priceratiovalue=9, $a=0.8, $ctlg=10^3, $F=nrr, $ttl=1000, $D=costprob0.1, $R=lru, $csize=10"
attr net simple_scenario
attr network networks.${net=simple_scenario}_network
attr priceratiovalue 9
attr processid 15082
attr rep 12
attr repetition 0
attr replication #0
attr resultdir results
attr runnumber 412
attr seedset 12
attr ttl 1000

scalar . 	a 	0.8
scalar . 	csize 	10
scalar . 	priceratiovalue 	9
scalar . 	rep 	12
scalar . 	ttl 	1000
scalar simple_scenario_network.content_distribution 	repo-0 	3
scalar simple_scenario_network.content_distribution 	repo-1 	4
scalar simple_scenario_network.content_distribution 	client-0 	0
scalar simple_scenario_network.content_distribution 	repo-0_card 	492
scalar simple_scenario_network.content_distribution 	repo-1_card 	508
scalar simple_scenario_network.statistics 	p_hit 	0.099688525758459
scalar simple_scenario_network.statistics 	interests 	95417.2
scalar simple_scenario_network.statistics 	data 	59429.4
scalar simple_scenario_network.statistics 	hdistance 	2.387061098823
scalar simple_scenario_network.statistics 	avg_time 	0.00199815741
scalar simple_scenario_network.statistics 	downloads 	179938
scalar simple_scenario_network.statistics 	total_cost 	66301
scalar simple_scenario_network.node[0].core_layer 	interests[0] 	179939
scalar simple_scenario_network.node[0].core_layer 	data[0] 	164768
scalar simple_scenario_network.node[0].core_layer 	repo_int[0] 	132379
scalar simple_scenario_network.node[0].content_store 	p_hit[0] 	0.084311905701377
scalar simple_scenario_network.node[0].content_store 	hits[0] 	15171
scalar simple_scenario_network.node[0].content_store 	misses[0] 	164768
scalar simple_scenario_network.node[1].core_layer 	interests[1] 	80818
scalar simple_scenario_network.node[1].core_layer 	data[1] 	66049
scalar simple_scenario_network.node[1].content_store 	p_hit[1] 	0.18274394318097
scalar simple_scenario_network.node[1].content_store 	hits[1] 	14769
scalar simple_scenario_network.node[1].content_store 	misses[1] 	66049
scalar simple_scenario_network.node[2].core_layer 	interests[2] 	83950
scalar simple_scenario_network.node[2].core_layer 	data[2] 	66330
scalar simple_scenario_network.node[2].content_store 	p_hit[2] 	0.20988683740322
scalar simple_scenario_network.node[2].content_store 	hits[2] 	17620
scalar simple_scenario_network.node[2].content_store 	misses[2] 	66330
scalar simple_scenario_network.node[3].core_layer 	interests[3] 	66049
scalar simple_scenario_network.node[3].core_layer 	repo_load[3] 	66049
scalar simple_scenario_network.node[3].core_layer 	data[3] 	0
scalar simple_scenario_network.node[3].content_store 	p_hit[3] 	0
scalar simple_scenario_network.node[3].content_store 	hits[3] 	0
scalar simple_scenario_network.node[3].content_store 	misses[3] 	66049
scalar simple_scenario_network.node[4].core_layer 	interests[4] 	66330
scalar simple_scenario_network.node[4].core_layer 	repo_load[4] 	66330
scalar simple_scenario_network.node[4].core_layer 	data[4] 	0
scalar simple_scenario_network.node[4].content_store 	p_hit[4] 	0
scalar simple_scenario_network.node[4].content_store 	hits[4] 	0
scalar simple_scenario_network.node[4].content_store 	misses[4] 	66330
scalar simple_scenario_network.client[0] 	hdistance[0] 	2.387061098823
scalar simple_scenario_network.client[0] 	downloads[0] 	179938
scalar simple_scenario_network.client[0] 	avg_time[0] 	0.00199815741
