version 2
run General-1637-20140423-19:13:27-27541
attr D prob_cache
attr F nrr
attr R lru
attr a 0.8
attr configname General
attr csize 2
attr ctlg 10^3
attr datetime 20140423-19:13:27
attr experiment General
attr inifile omnetpp.ini
attr iterationvars "$net=simple_scenario, $rep=5, $priceratiovalue=6, $a=0.8, $ctlg=10^3, $F=nrr, $ttl=1000, $D=prob_cache, $R=lru, $csize=2"
attr iterationvars2 "$net=simple_scenario, $rep=5, $priceratiovalue=6, $a=0.8, $ctlg=10^3, $F=nrr, $ttl=1000, $D=prob_cache, $R=lru, $csize=2, $repetition=0"
attr measurement "$net=simple_scenario, $rep=5, $priceratiovalue=6, $a=0.8, $ctlg=10^3, $F=nrr, $ttl=1000, $D=prob_cache, $R=lru, $csize=2"
attr net simple_scenario
attr network networks.${net=simple_scenario}_network
attr priceratiovalue 6
attr processid 27541
attr rep 5
attr repetition 0
attr replication #0
attr resultdir results
attr runnumber 1637
attr seedset 5
attr ttl 1000

scalar . 	a 	0.8
scalar . 	csize 	2
scalar . 	priceratiovalue 	6
scalar . 	rep 	5
scalar . 	ttl 	1000
scalar simple_scenario_network.content_distribution 	repo-0 	3
scalar simple_scenario_network.content_distribution 	repo-1 	4
scalar simple_scenario_network.content_distribution 	client-0 	0
scalar simple_scenario_network.content_distribution 	repo-0_card 	495
scalar simple_scenario_network.content_distribution 	repo-1_card 	505
scalar simple_scenario_network.statistics 	p_hit 	0.019193141224101
scalar simple_scenario_network.statistics 	interests 	104975
scalar simple_scenario_network.statistics 	data 	69049.4
scalar simple_scenario_network.statistics 	hdistance 	2.8659284744027
scalar simple_scenario_network.statistics 	avg_time 	0.001998287427
scalar simple_scenario_network.statistics 	downloads 	179628
scalar simple_scenario_network.statistics 	total_cost 	86082
scalar simple_scenario_network.node[0].core_layer 	interests[0] 	179628
scalar simple_scenario_network.node[0].core_layer 	data[0] 	175693
scalar simple_scenario_network.node[0].core_layer 	repo_int[0] 	169554
scalar simple_scenario_network.node[0].content_store 	p_hit[0] 	0.021906384305342
scalar simple_scenario_network.node[0].content_store 	hits[0] 	3935
scalar simple_scenario_network.node[0].content_store 	misses[0] 	175693
scalar simple_scenario_network.node[1].core_layer 	interests[1] 	85274
scalar simple_scenario_network.node[1].core_layer 	data[1] 	82950
scalar simple_scenario_network.node[1].content_store 	p_hit[1] 	0.027253324577245
scalar simple_scenario_network.node[1].content_store 	hits[1] 	2324
scalar simple_scenario_network.node[1].content_store 	misses[1] 	82950
scalar simple_scenario_network.node[2].core_layer 	interests[2] 	90419
scalar simple_scenario_network.node[2].core_layer 	data[2] 	86604
scalar simple_scenario_network.node[2].content_store 	p_hit[2] 	0.042192459549431
scalar simple_scenario_network.node[2].content_store 	hits[2] 	3815
scalar simple_scenario_network.node[2].content_store 	misses[2] 	86604
scalar simple_scenario_network.node[3].core_layer 	interests[3] 	82950
scalar simple_scenario_network.node[3].core_layer 	repo_load[3] 	82950
scalar simple_scenario_network.node[3].core_layer 	data[3] 	0
scalar simple_scenario_network.node[3].content_store 	p_hit[3] 	0
scalar simple_scenario_network.node[3].content_store 	hits[3] 	0
scalar simple_scenario_network.node[3].content_store 	misses[3] 	82950
scalar simple_scenario_network.node[4].core_layer 	interests[4] 	86604
scalar simple_scenario_network.node[4].core_layer 	repo_load[4] 	86604
scalar simple_scenario_network.node[4].core_layer 	data[4] 	0
scalar simple_scenario_network.node[4].content_store 	p_hit[4] 	0
scalar simple_scenario_network.node[4].content_store 	hits[4] 	0
scalar simple_scenario_network.node[4].content_store 	misses[4] 	86604
scalar simple_scenario_network.client[0] 	hdistance[0] 	2.8659284744027
scalar simple_scenario_network.client[0] 	downloads[0] 	179628
scalar simple_scenario_network.client[0] 	avg_time[0] 	0.001998287427
