version 2
run General-2717-20140423-19:40:38-28863
attr D prob_cache
attr F nrr
attr R lru
attr a 0.8
attr configname General
attr csize 2
attr ctlg 10^3
attr datetime 20140423-19:40:38
attr experiment General
attr inifile omnetpp.ini
attr iterationvars "$net=simple_scenario, $rep=8, $priceratiovalue=6, $a=0.8, $ctlg=10^3, $F=nrr, $ttl=1000, $D=prob_cache, $R=lru, $csize=2"
attr iterationvars2 "$net=simple_scenario, $rep=8, $priceratiovalue=6, $a=0.8, $ctlg=10^3, $F=nrr, $ttl=1000, $D=prob_cache, $R=lru, $csize=2, $repetition=0"
attr measurement "$net=simple_scenario, $rep=8, $priceratiovalue=6, $a=0.8, $ctlg=10^3, $F=nrr, $ttl=1000, $D=prob_cache, $R=lru, $csize=2"
attr net simple_scenario
attr network networks.${net=simple_scenario}_network
attr priceratiovalue 6
attr processid 28863
attr rep 8
attr repetition 0
attr replication #0
attr resultdir results
attr runnumber 2717
attr seedset 8
attr ttl 1000

scalar . 	a 	0.8
scalar . 	csize 	2
scalar . 	priceratiovalue 	6
scalar . 	rep 	8
scalar . 	ttl 	1000
scalar simple_scenario_network.content_distribution 	repo-0 	3
scalar simple_scenario_network.content_distribution 	repo-1 	4
scalar simple_scenario_network.content_distribution 	client-0 	0
scalar simple_scenario_network.content_distribution 	repo-0_card 	485
scalar simple_scenario_network.content_distribution 	repo-1_card 	515
scalar simple_scenario_network.statistics 	p_hit 	0.019036268701257
scalar simple_scenario_network.statistics 	interests 	105220.2
scalar simple_scenario_network.statistics 	data 	69211.8
scalar simple_scenario_network.statistics 	hdistance 	2.8664756001378
scalar simple_scenario_network.statistics 	avg_time 	0.001997961077
scalar simple_scenario_network.statistics 	downloads 	180042
scalar simple_scenario_network.statistics 	total_cost 	90741
scalar simple_scenario_network.node[0].core_layer 	interests[0] 	180042
scalar simple_scenario_network.node[0].core_layer 	data[0] 	176032
scalar simple_scenario_network.node[0].core_layer 	repo_int[0] 	170027
scalar simple_scenario_network.node[0].content_store 	p_hit[0] 	0.022272580842248
scalar simple_scenario_network.node[0].content_store 	hits[0] 	4010
scalar simple_scenario_network.node[0].content_store 	misses[0] 	176032
scalar simple_scenario_network.node[1].core_layer 	interests[1] 	79161
scalar simple_scenario_network.node[1].core_layer 	data[1] 	76994
scalar simple_scenario_network.node[1].content_store 	p_hit[1] 	0.027374591023357
scalar simple_scenario_network.node[1].content_store 	hits[1] 	2167
scalar simple_scenario_network.node[1].content_store 	misses[1] 	76994
scalar simple_scenario_network.node[2].core_layer 	interests[2] 	96871
scalar simple_scenario_network.node[2].core_layer 	data[2] 	93033
scalar simple_scenario_network.node[2].content_store 	p_hit[2] 	0.03961970042634
scalar simple_scenario_network.node[2].content_store 	hits[2] 	3838
scalar simple_scenario_network.node[2].content_store 	misses[2] 	93033
scalar simple_scenario_network.node[3].core_layer 	interests[3] 	76994
scalar simple_scenario_network.node[3].core_layer 	repo_load[3] 	76994
scalar simple_scenario_network.node[3].core_layer 	data[3] 	0
scalar simple_scenario_network.node[3].content_store 	p_hit[3] 	0
scalar simple_scenario_network.node[3].content_store 	hits[3] 	0
scalar simple_scenario_network.node[3].content_store 	misses[3] 	76994
scalar simple_scenario_network.node[4].core_layer 	interests[4] 	93033
scalar simple_scenario_network.node[4].core_layer 	repo_load[4] 	93033
scalar simple_scenario_network.node[4].core_layer 	data[4] 	0
scalar simple_scenario_network.node[4].content_store 	p_hit[4] 	0
scalar simple_scenario_network.node[4].content_store 	hits[4] 	0
scalar simple_scenario_network.node[4].content_store 	misses[4] 	93033
scalar simple_scenario_network.client[0] 	hdistance[0] 	2.8664756001378
scalar simple_scenario_network.client[0] 	downloads[0] 	180042
scalar simple_scenario_network.client[0] 	avg_time[0] 	0.001997961077
