version 2
run General-197-20140423-18:36:41-25962
attr D prob_cache
attr F nrr
attr R lru
attr a 0.8
attr configname General
attr csize 2
attr ctlg 10^3
attr datetime 20140423-18:36:41
attr experiment General
attr inifile omnetpp.ini
attr iterationvars "$net=simple_scenario, $rep=1, $priceratiovalue=6, $a=0.8, $ctlg=10^3, $F=nrr, $ttl=1000, $D=prob_cache, $R=lru, $csize=2"
attr iterationvars2 "$net=simple_scenario, $rep=1, $priceratiovalue=6, $a=0.8, $ctlg=10^3, $F=nrr, $ttl=1000, $D=prob_cache, $R=lru, $csize=2, $repetition=0"
attr measurement "$net=simple_scenario, $rep=1, $priceratiovalue=6, $a=0.8, $ctlg=10^3, $F=nrr, $ttl=1000, $D=prob_cache, $R=lru, $csize=2"
attr net simple_scenario
attr network networks.${net=simple_scenario}_network
attr priceratiovalue 6
attr processid 25962
attr rep 1
attr repetition 0
attr replication #0
attr resultdir results
attr runnumber 197
attr seedset 1
attr ttl 1000

scalar . 	a 	0.8
scalar . 	csize 	2
scalar . 	priceratiovalue 	6
scalar . 	rep 	1
scalar . 	ttl 	1000
scalar simple_scenario_network.content_distribution 	repo-0 	3
scalar simple_scenario_network.content_distribution 	repo-1 	4
scalar simple_scenario_network.content_distribution 	client-0 	0
scalar simple_scenario_network.content_distribution 	repo-0_card 	522
scalar simple_scenario_network.content_distribution 	repo-1_card 	478
scalar simple_scenario_network.statistics 	p_hit 	0.018828587436682
scalar simple_scenario_network.statistics 	interests 	104946.8
scalar simple_scenario_network.statistics 	data 	69032.2
scalar simple_scenario_network.statistics 	hdistance 	2.8671014016584
scalar simple_scenario_network.statistics 	avg_time 	0.00199830335
scalar simple_scenario_network.statistics 	downloads 	179573
scalar simple_scenario_network.statistics 	total_cost 	88672
scalar simple_scenario_network.node[0].core_layer 	interests[0] 	179573
scalar simple_scenario_network.node[0].core_layer 	data[0] 	175468
scalar simple_scenario_network.node[0].core_layer 	repo_int[0] 	169693
scalar simple_scenario_network.node[0].content_store 	p_hit[0] 	0.022859784043258
scalar simple_scenario_network.node[0].content_store 	hits[0] 	4105
scalar simple_scenario_network.node[0].content_store 	misses[0] 	175468
scalar simple_scenario_network.node[1].core_layer 	interests[1] 	81104
scalar simple_scenario_network.node[1].core_layer 	data[1] 	79489
scalar simple_scenario_network.node[1].content_store 	p_hit[1] 	0.019912704675478
scalar simple_scenario_network.node[1].content_store 	hits[1] 	1615
scalar simple_scenario_network.node[1].content_store 	misses[1] 	79489
scalar simple_scenario_network.node[2].core_layer 	interests[2] 	94364
scalar simple_scenario_network.node[2].core_layer 	data[2] 	90204
scalar simple_scenario_network.node[2].content_store 	p_hit[2] 	0.044084608537154
scalar simple_scenario_network.node[2].content_store 	hits[2] 	4160
scalar simple_scenario_network.node[2].content_store 	misses[2] 	90204
scalar simple_scenario_network.node[3].core_layer 	interests[3] 	79489
scalar simple_scenario_network.node[3].core_layer 	repo_load[3] 	79489
scalar simple_scenario_network.node[3].core_layer 	data[3] 	0
scalar simple_scenario_network.node[3].content_store 	p_hit[3] 	0
scalar simple_scenario_network.node[3].content_store 	hits[3] 	0
scalar simple_scenario_network.node[3].content_store 	misses[3] 	79489
scalar simple_scenario_network.node[4].core_layer 	interests[4] 	90204
scalar simple_scenario_network.node[4].core_layer 	repo_load[4] 	90204
scalar simple_scenario_network.node[4].core_layer 	data[4] 	0
scalar simple_scenario_network.node[4].content_store 	p_hit[4] 	0
scalar simple_scenario_network.node[4].content_store 	hits[4] 	0
scalar simple_scenario_network.node[4].content_store 	misses[4] 	90204
scalar simple_scenario_network.client[0] 	hdistance[0] 	2.8671014016584
scalar simple_scenario_network.client[0] 	downloads[0] 	179573
scalar simple_scenario_network.client[0] 	avg_time[0] 	0.00199830335
