version 2
run General-1984-20140502-04:52:52-10920
attr D costprob0.01
attr F nrr
attr R lru
attr a 0.8
attr configname General
attr csize 1e3
attr ctlg 1e5
attr datetime 20140502-04:52:52
attr experiment General
attr inifile omnetpp.ini
attr iterationvars "$net=three_caches_scenario_3_links, $rep=4, $priceratiovalue=2, $weights=0_0.5_0.5, $a=0.8, $ctlg=1e5, $F=nrr, $ttl=1000, $D=costprob0.01, $xi=1, $R=lru, $csize=1e3"
attr iterationvars2 "$net=three_caches_scenario_3_links, $rep=4, $priceratiovalue=2, $weights=0_0.5_0.5, $a=0.8, $ctlg=1e5, $F=nrr, $ttl=1000, $D=costprob0.01, $xi=1, $R=lru, $csize=1e3, $repetition=0"
attr measurement "$net=three_caches_scenario_3_links, $rep=4, $priceratiovalue=2, $weights=0_0.5_0.5, $a=0.8, $ctlg=1e5, $F=nrr, $ttl=1000, $D=costprob0.01, $xi=1, $R=lru, $csize=1e3"
attr net three_caches_scenario_3_links
attr network networks.${net=three_caches_scenario_3_links}_network
attr priceratiovalue 2
attr processid 10920
attr rep 4
attr repetition 0
attr replication #0
attr resultdir results
attr runnumber 1984
attr seedset 4
attr ttl 1000
attr weights 0_0.5_0.5
attr xi 1

scalar . 	a 	0.8
scalar . 	csize 	1e3
scalar . 	ctlg 	1e5
scalar . 	priceratiovalue 	2
scalar . 	rep 	4
scalar . 	ttl 	1000
scalar . 	xi 	1
scalar three_caches_scenario_3_links_network.content_distribution 	repo-0 	4
scalar three_caches_scenario_3_links_network.content_distribution 	repo-1 	5
scalar three_caches_scenario_3_links_network.content_distribution 	repo-2 	6
scalar three_caches_scenario_3_links_network.content_distribution 	client-0 	0
scalar three_caches_scenario_3_links_network.content_distribution 	repo-0_card 	0
scalar three_caches_scenario_3_links_network.content_distribution 	repo-1_card 	50243
scalar three_caches_scenario_3_links_network.content_distribution 	repo-2_card 	49757
scalar three_caches_scenario_3_links_network.statistics 	p_hit 	0.10217722929164
scalar three_caches_scenario_3_links_network.statistics 	interests 	67707.285714286
scalar three_caches_scenario_3_links_network.statistics 	data 	42004.857142857
scalar three_caches_scenario_3_links_network.statistics 	hdistance 	2.3651128020142
scalar three_caches_scenario_3_links_network.statistics 	avg_time 	0
scalar three_caches_scenario_3_links_network.statistics 	downloads 	179917
scalar three_caches_scenario_3_links_network.statistics 	total_cost 	195084
scalar three_caches_scenario_3_links_network.statistics 	total_replicas 	100000
scalar three_caches_scenario_3_links_network.statistics 	interests_sent 	179917
scalar three_caches_scenario_3_links_network.node[0].core_layer 	interests[0] 	179917
scalar three_caches_scenario_3_links_network.node[0].core_layer 	data[0] 	162544
scalar three_caches_scenario_3_links_network.node[0].core_layer 	repo_int[0] 	131490
scalar three_caches_scenario_3_links_network.node[0].content_store 	p_hit[0] 	0.096561192105249
scalar three_caches_scenario_3_links_network.node[0].content_store 	hits[0] 	17373
scalar three_caches_scenario_3_links_network.node[0].content_store 	misses[0] 	162544
scalar three_caches_scenario_3_links_network.node[0].content_store 	decision_yes[0] 	1352
scalar three_caches_scenario_3_links_network.node[0].content_store 	decision_no[0] 	161192
scalar three_caches_scenario_3_links_network.node[1].core_layer 	interests[1] 	0
scalar three_caches_scenario_3_links_network.node[1].core_layer 	data[1] 	0
scalar three_caches_scenario_3_links_network.node[1].content_store 	p_hit[1] 	-nan
scalar three_caches_scenario_3_links_network.node[1].content_store 	hits[1] 	0
scalar three_caches_scenario_3_links_network.node[1].content_store 	misses[1] 	0
scalar three_caches_scenario_3_links_network.node[1].content_store 	decision_yes[1] 	0
scalar three_caches_scenario_3_links_network.node[1].content_store 	decision_no[1] 	0
scalar three_caches_scenario_3_links_network.node[2].core_layer 	interests[2] 	87007
scalar three_caches_scenario_3_links_network.node[2].core_layer 	data[2] 	67896
scalar three_caches_scenario_3_links_network.node[2].content_store 	p_hit[2] 	0.21964899375912
scalar three_caches_scenario_3_links_network.node[2].content_store 	hits[2] 	19111
scalar three_caches_scenario_3_links_network.node[2].content_store 	misses[2] 	67896
scalar three_caches_scenario_3_links_network.node[2].content_store 	decision_yes[2] 	462
scalar three_caches_scenario_3_links_network.node[2].content_store 	decision_no[2] 	67434
scalar three_caches_scenario_3_links_network.node[3].core_layer 	interests[3] 	75537
scalar three_caches_scenario_3_links_network.node[3].core_layer 	data[3] 	63594
scalar three_caches_scenario_3_links_network.node[3].content_store 	p_hit[3] 	0.15810794709877
scalar three_caches_scenario_3_links_network.node[3].content_store 	hits[3] 	11943
scalar three_caches_scenario_3_links_network.node[3].content_store 	misses[3] 	63594
scalar three_caches_scenario_3_links_network.node[3].content_store 	decision_yes[3] 	863
scalar three_caches_scenario_3_links_network.node[3].content_store 	decision_no[3] 	62731
scalar three_caches_scenario_3_links_network.node[4].core_layer 	interests[4] 	0
scalar three_caches_scenario_3_links_network.node[4].core_layer 	data[4] 	0
scalar three_caches_scenario_3_links_network.node[4].content_store 	p_hit[4] 	-nan
scalar three_caches_scenario_3_links_network.node[4].content_store 	hits[4] 	0
scalar three_caches_scenario_3_links_network.node[4].content_store 	misses[4] 	0
scalar three_caches_scenario_3_links_network.node[4].content_store 	decision_yes[4] 	0
scalar three_caches_scenario_3_links_network.node[4].content_store 	decision_no[4] 	0
scalar three_caches_scenario_3_links_network.node[5].core_layer 	interests[5] 	67896
scalar three_caches_scenario_3_links_network.node[5].core_layer 	repo_load[5] 	67896
scalar three_caches_scenario_3_links_network.node[5].core_layer 	data[5] 	0
scalar three_caches_scenario_3_links_network.node[5].content_store 	p_hit[5] 	0
scalar three_caches_scenario_3_links_network.node[5].content_store 	hits[5] 	0
scalar three_caches_scenario_3_links_network.node[5].content_store 	misses[5] 	67896
scalar three_caches_scenario_3_links_network.node[5].content_store 	decision_yes[5] 	0
scalar three_caches_scenario_3_links_network.node[5].content_store 	decision_no[5] 	67896
scalar three_caches_scenario_3_links_network.node[6].core_layer 	interests[6] 	63594
scalar three_caches_scenario_3_links_network.node[6].core_layer 	repo_load[6] 	63594
scalar three_caches_scenario_3_links_network.node[6].core_layer 	data[6] 	0
scalar three_caches_scenario_3_links_network.node[6].content_store 	p_hit[6] 	0
scalar three_caches_scenario_3_links_network.node[6].content_store 	hits[6] 	0
scalar three_caches_scenario_3_links_network.node[6].content_store 	misses[6] 	63594
scalar three_caches_scenario_3_links_network.node[6].content_store 	decision_yes[6] 	0
scalar three_caches_scenario_3_links_network.node[6].content_store 	decision_no[6] 	63594
scalar three_caches_scenario_3_links_network.client[0] 	hdistance[0] 	2.3651128020142
scalar three_caches_scenario_3_links_network.client[0] 	downloads[0] 	179917
scalar three_caches_scenario_3_links_network.client[0] 	avg_time[0] 	0
scalar three_caches_scenario_3_links_network.client[0] 	interests_sent[0] 	179917
