version 2
run General-15-20140626-16:45:15-7461
attr D costprobprodcorr0.01
attr F spr
attr R lru
attr a 1
attr configname General
attr csize 1e3
attr ctlg 1e5
attr datetime 20140626-16:45:15
attr experiment General
attr inifile omnetpp.ini
attr iterationvars "$net=geant_cost, $rep=10, $priceratiovalue=10, $weights=0.333_0.333_0.334, $lambda=100, $a=1, $ctlg=1e5, $F=spr, $ttl=1000, $D=costprobprodcorr0.01, $xi=1, $R=lru, $csize=1e3, $pricebits=0, $mytime=1800"
attr iterationvars2 "$net=geant_cost, $rep=10, $priceratiovalue=10, $weights=0.333_0.333_0.334, $lambda=100, $a=1, $ctlg=1e5, $F=spr, $ttl=1000, $D=costprobprodcorr0.01, $xi=1, $R=lru, $csize=1e3, $pricebits=0, $mytime=1800, $repetition=0"
attr lambda 100
attr measurement "$net=geant_cost, $rep=10, $priceratiovalue=10, $weights=0.333_0.333_0.334, $lambda=100, $a=1, $ctlg=1e5, $F=spr, $ttl=1000, $D=costprobprodcorr0.01, $xi=1, $R=lru, $csize=1e3, $pricebits=0, $mytime=1800"
attr mytime 1800
attr net geant_cost
attr network "networks.${net=geant_cost, abilene_cost}_network"
attr pricebits 0
attr priceratiovalue 10
attr processid 7461
attr rep 10
attr repetition 0
attr replication #0
attr resultdir results
attr runnumber 15
attr seedset 10
attr ttl 1000
attr weights 0.333_0.333_0.334
attr xi 1

scalar . 	a 	1
scalar . 	csize 	1e3
scalar . 	ctlg 	1e5
scalar . 	lambda 	100
scalar . 	mytime 	1800
scalar . 	pricebits 	0
scalar . 	priceratiovalue 	10
scalar . 	rep 	10
scalar . 	ttl 	1000
scalar . 	xi 	1
scalar geant_cost_network.content_distribution 	repo-0 	22
scalar geant_cost_network.content_distribution 	repo-1 	23
scalar geant_cost_network.content_distribution 	repo-2 	24
scalar geant_cost_network.content_distribution 	client-0 	20
scalar geant_cost_network.content_distribution 	client-1 	10
scalar geant_cost_network.content_distribution 	client-2 	12
scalar geant_cost_network.content_distribution 	client-3 	9
scalar geant_cost_network.content_distribution 	client-4 	5
scalar geant_cost_network.content_distribution 	repo-0_card 	33053
scalar geant_cost_network.content_distribution 	repo-1_card 	33534
scalar geant_cost_network.content_distribution 	repo-2_card 	33413
scalar geant_cost_network.statistics 	repo_popularity[0] 	0.42335737931898
scalar geant_cost_network.statistics 	repo_popularity[1] 	0.27871951512344
scalar geant_cost_network.statistics 	repo_popularity[2] 	0.29792310555758
scalar geant_cost_network.statistics 	stabilization_time 	36060
scalar geant_cost_network.node[7].face$o[4].channel 	price[7] 	0
scalar geant_cost_network.node[7].face$o[4].channel 	represented_price[7] 	0
scalar geant_cost_network.node[8].face$o[3].channel 	price[8] 	0
scalar geant_cost_network.node[8].face$o[3].channel 	represented_price[8] 	0
scalar geant_cost_network.node[21].face$o[5].channel 	price[21] 	0
scalar geant_cost_network.node[21].face$o[5].channel 	represented_price[21] 	0
scalar geant_cost_network.node[22].face$o[1].channel 	price[22] 	0
scalar geant_cost_network.node[22].face$o[1].channel 	represented_price[22] 	0
scalar geant_cost_network.node[23].face$o[1].channel 	price[23] 	1
scalar geant_cost_network.node[23].face$o[1].channel 	represented_price[23] 	1
scalar geant_cost_network.node[24].face$o[1].channel 	price[24] 	10
scalar geant_cost_network.node[24].face$o[1].channel 	represented_price[24] 	10
scalar geant_cost_network.statistics 	p_hit 	0.054208388606224
scalar geant_cost_network.statistics 	interests 	151219.4
scalar geant_cost_network.statistics 	data 	115231.8
scalar geant_cost_network.statistics 	hdistance 	4.0016360564963
scalar geant_cost_network.statistics 	avg_time 	0.006178799251
scalar geant_cost_network.statistics 	downloads 	893531
scalar geant_cost_network.statistics 	total_cost 	1683351
scalar geant_cost_network.statistics 	total_replicas 	100000
scalar geant_cost_network.statistics 	inner_hit 	0.23220794801747
scalar geant_cost_network.statistics 	interests_sent 	899690
scalar geant_cost_network.node[0].core_layer 	interests[0] 	0
scalar geant_cost_network.node[0].core_layer 	data[0] 	0
scalar geant_cost_network.node[0].core_layer 	repo_int[0] 	686046
scalar geant_cost_network.node[0].content_store 	p_hit[0] 	-nan
scalar geant_cost_network.node[0].content_store 	hits[0] 	0
scalar geant_cost_network.node[0].content_store 	misses[0] 	0
scalar geant_cost_network.node[0].content_store 	decision_yes[0] 	0
scalar geant_cost_network.node[0].content_store 	decision_no[0] 	0
scalar geant_cost_network.node[0].content_store 	decision_ratio[0] 	0
scalar geant_cost_network.node[0].content_store 	correction_factor[0] 	0.0027225701061802
scalar geant_cost_network.node[0].content_store 	xi[0] 	1
scalar geant_cost_network.node[1].core_layer 	interests[1] 	0
scalar geant_cost_network.node[1].core_layer 	data[1] 	0
scalar geant_cost_network.node[1].content_store 	p_hit[1] 	-nan
scalar geant_cost_network.node[1].content_store 	hits[1] 	0
scalar geant_cost_network.node[1].content_store 	misses[1] 	0
scalar geant_cost_network.node[1].content_store 	decision_yes[1] 	0
scalar geant_cost_network.node[1].content_store 	decision_no[1] 	0
scalar geant_cost_network.node[1].content_store 	decision_ratio[1] 	0
scalar geant_cost_network.node[1].content_store 	correction_factor[1] 	0.0027225701061802
scalar geant_cost_network.node[1].content_store 	xi[1] 	1
scalar geant_cost_network.node[2].core_layer 	interests[2] 	0
scalar geant_cost_network.node[2].core_layer 	data[2] 	0
scalar geant_cost_network.node[2].content_store 	p_hit[2] 	-nan
scalar geant_cost_network.node[2].content_store 	hits[2] 	0
scalar geant_cost_network.node[2].content_store 	misses[2] 	0
scalar geant_cost_network.node[2].content_store 	decision_yes[2] 	0
scalar geant_cost_network.node[2].content_store 	decision_no[2] 	0
scalar geant_cost_network.node[2].content_store 	decision_ratio[2] 	0
scalar geant_cost_network.node[2].content_store 	correction_factor[2] 	0.0027225701061802
scalar geant_cost_network.node[2].content_store 	xi[2] 	1
scalar geant_cost_network.node[3].core_layer 	interests[3] 	218509
scalar geant_cost_network.node[3].core_layer 	data[3] 	209935
scalar geant_cost_network.node[3].content_store 	p_hit[3] 	0.039238658361898
scalar geant_cost_network.node[3].content_store 	hits[3] 	8574
scalar geant_cost_network.node[3].content_store 	misses[3] 	209935
scalar geant_cost_network.node[3].content_store 	decision_yes[3] 	2408
scalar geant_cost_network.node[3].content_store 	decision_no[3] 	207527
scalar geant_cost_network.node[3].content_store 	decision_ratio[3] 	0.01147021697192
scalar geant_cost_network.node[3].content_store 	correction_factor[3] 	0.0027225701061802
scalar geant_cost_network.node[3].content_store 	xi[3] 	1
scalar geant_cost_network.node[4].core_layer 	interests[4] 	328692
scalar geant_cost_network.node[4].core_layer 	data[4] 	313376
scalar geant_cost_network.node[4].content_store 	p_hit[4] 	0.044756185121634
scalar geant_cost_network.node[4].content_store 	hits[4] 	14711
scalar geant_cost_network.node[4].content_store 	misses[4] 	313981
scalar geant_cost_network.node[4].content_store 	decision_yes[4] 	2458
scalar geant_cost_network.node[4].content_store 	decision_no[4] 	310918
scalar geant_cost_network.node[4].content_store 	decision_ratio[4] 	0.0078436127846421
scalar geant_cost_network.node[4].content_store 	correction_factor[4] 	0.0027225701061802
scalar geant_cost_network.node[4].content_store 	xi[4] 	1
scalar geant_cost_network.node[5].core_layer 	interests[5] 	180638
scalar geant_cost_network.node[5].core_layer 	data[5] 	175578
scalar geant_cost_network.node[5].content_store 	p_hit[5] 	0.018030536210543
scalar geant_cost_network.node[5].content_store 	hits[5] 	3257
scalar geant_cost_network.node[5].content_store 	misses[5] 	177381
scalar geant_cost_network.node[5].content_store 	decision_yes[5] 	928
scalar geant_cost_network.node[5].content_store 	decision_no[5] 	174650
scalar geant_cost_network.node[5].content_store 	decision_ratio[5] 	0.0052854002209844
scalar geant_cost_network.node[5].content_store 	correction_factor[5] 	0.0027225701061802
scalar geant_cost_network.node[5].content_store 	xi[5] 	1
scalar geant_cost_network.node[6].core_layer 	interests[6] 	125112
scalar geant_cost_network.node[6].core_layer 	data[6] 	121769
scalar geant_cost_network.node[6].content_store 	p_hit[6] 	0.026720058827291
scalar geant_cost_network.node[6].content_store 	hits[6] 	3343
scalar geant_cost_network.node[6].content_store 	misses[6] 	121769
scalar geant_cost_network.node[6].content_store 	decision_yes[6] 	85
scalar geant_cost_network.node[6].content_store 	decision_no[6] 	121684
scalar geant_cost_network.node[6].content_store 	decision_ratio[6] 	0.00069804301587432
scalar geant_cost_network.node[6].content_store 	correction_factor[6] 	0.0027225701061802
scalar geant_cost_network.node[6].content_store 	xi[6] 	1
scalar geant_cost_network.node[7].core_layer 	interests[7] 	464656
scalar geant_cost_network.node[7].core_layer 	data[7] 	447593
scalar geant_cost_network.node[7].content_store 	p_hit[7] 	0.036715333494026
scalar geant_cost_network.node[7].content_store 	hits[7] 	17060
scalar geant_cost_network.node[7].content_store 	misses[7] 	447596
scalar geant_cost_network.node[7].content_store 	decision_yes[7] 	172
scalar geant_cost_network.node[7].content_store 	decision_no[7] 	447421
scalar geant_cost_network.node[7].content_store 	decision_ratio[7] 	0.00038427768083951
scalar geant_cost_network.node[7].content_store 	correction_factor[7] 	0.0027225701061802
scalar geant_cost_network.node[7].content_store 	xi[7] 	1
scalar geant_cost_network.node[8].core_layer 	interests[8] 	354277
scalar geant_cost_network.node[8].core_layer 	data[8] 	309712
scalar geant_cost_network.node[8].content_store 	p_hit[8] 	0.12579140051429
scalar geant_cost_network.node[8].content_store 	hits[8] 	44565
scalar geant_cost_network.node[8].content_store 	misses[8] 	309712
scalar geant_cost_network.node[8].content_store 	decision_yes[8] 	449
scalar geant_cost_network.node[8].content_store 	decision_no[8] 	309263
scalar geant_cost_network.node[8].content_store 	decision_ratio[8] 	0.001449733946376
scalar geant_cost_network.node[8].content_store 	correction_factor[8] 	0.0027225701061802
scalar geant_cost_network.node[8].content_store 	xi[8] 	1
scalar geant_cost_network.node[9].core_layer 	interests[9] 	400039
scalar geant_cost_network.node[9].core_layer 	data[9] 	382614
scalar geant_cost_network.node[9].content_store 	p_hit[9] 	0.038463749784396
scalar geant_cost_network.node[9].content_store 	hits[9] 	15387
scalar geant_cost_network.node[9].content_store 	misses[9] 	384652
scalar geant_cost_network.node[9].content_store 	decision_yes[9] 	1882
scalar geant_cost_network.node[9].content_store 	decision_no[9] 	380732
scalar geant_cost_network.node[9].content_store 	decision_ratio[9] 	0.0049187954439723
scalar geant_cost_network.node[9].content_store 	correction_factor[9] 	0.0027225701061802
scalar geant_cost_network.node[9].content_store 	xi[9] 	1
scalar geant_cost_network.node[10].core_layer 	interests[10] 	179771
scalar geant_cost_network.node[10].core_layer 	data[10] 	172341
scalar geant_cost_network.node[10].content_store 	p_hit[10] 	0.035484032463523
scalar geant_cost_network.node[10].content_store 	hits[10] 	6379
scalar geant_cost_network.node[10].content_store 	misses[10] 	173392
scalar geant_cost_network.node[10].content_store 	decision_yes[10] 	918
scalar geant_cost_network.node[10].content_store 	decision_no[10] 	171423
scalar geant_cost_network.node[10].content_store 	decision_ratio[10] 	0.0053266489111703
scalar geant_cost_network.node[10].content_store 	correction_factor[10] 	0.0027225701061802
scalar geant_cost_network.node[10].content_store 	xi[10] 	1
scalar geant_cost_network.node[11].core_layer 	interests[11] 	0
scalar geant_cost_network.node[11].core_layer 	data[11] 	0
scalar geant_cost_network.node[11].content_store 	p_hit[11] 	-nan
scalar geant_cost_network.node[11].content_store 	hits[11] 	0
scalar geant_cost_network.node[11].content_store 	misses[11] 	0
scalar geant_cost_network.node[11].content_store 	decision_yes[11] 	0
scalar geant_cost_network.node[11].content_store 	decision_no[11] 	0
scalar geant_cost_network.node[11].content_store 	decision_ratio[11] 	0
scalar geant_cost_network.node[11].content_store 	correction_factor[11] 	0.0027225701061802
scalar geant_cost_network.node[11].content_store 	xi[11] 	1
scalar geant_cost_network.node[12].core_layer 	interests[12] 	282142
scalar geant_cost_network.node[12].core_layer 	data[12] 	266870
scalar geant_cost_network.node[12].content_store 	p_hit[12] 	0.048362172239511
scalar geant_cost_network.node[12].content_store 	hits[12] 	13645
scalar geant_cost_network.node[12].content_store 	misses[12] 	268497
scalar geant_cost_network.node[12].content_store 	decision_yes[12] 	2527
scalar geant_cost_network.node[12].content_store 	decision_no[12] 	264343
scalar geant_cost_network.node[12].content_store 	decision_ratio[12] 	0.0094690298647281
scalar geant_cost_network.node[12].content_store 	correction_factor[12] 	0.0027225701061802
scalar geant_cost_network.node[12].content_store 	xi[12] 	1
scalar geant_cost_network.node[13].core_layer 	interests[13] 	0
scalar geant_cost_network.node[13].core_layer 	data[13] 	0
scalar geant_cost_network.node[13].content_store 	p_hit[13] 	-nan
scalar geant_cost_network.node[13].content_store 	hits[13] 	0
scalar geant_cost_network.node[13].content_store 	misses[13] 	0
scalar geant_cost_network.node[13].content_store 	decision_yes[13] 	0
scalar geant_cost_network.node[13].content_store 	decision_no[13] 	0
scalar geant_cost_network.node[13].content_store 	decision_ratio[13] 	0
scalar geant_cost_network.node[13].content_store 	correction_factor[13] 	0.0027225701061802
scalar geant_cost_network.node[13].content_store 	xi[13] 	1
scalar geant_cost_network.node[14].core_layer 	interests[14] 	50466
scalar geant_cost_network.node[14].core_layer 	data[14] 	42879
scalar geant_cost_network.node[14].content_store 	p_hit[14] 	0.15033884199263
scalar geant_cost_network.node[14].content_store 	hits[14] 	7587
scalar geant_cost_network.node[14].content_store 	misses[14] 	42879
scalar geant_cost_network.node[14].content_store 	decision_yes[14] 	861
scalar geant_cost_network.node[14].content_store 	decision_no[14] 	42018
scalar geant_cost_network.node[14].content_store 	decision_ratio[14] 	0.020079759322745
scalar geant_cost_network.node[14].content_store 	correction_factor[14] 	0.0027225701061802
scalar geant_cost_network.node[14].content_store 	xi[14] 	1
scalar geant_cost_network.node[15].core_layer 	interests[15] 	0
scalar geant_cost_network.node[15].core_layer 	data[15] 	0
scalar geant_cost_network.node[15].content_store 	p_hit[15] 	-nan
scalar geant_cost_network.node[15].content_store 	hits[15] 	0
scalar geant_cost_network.node[15].content_store 	misses[15] 	0
scalar geant_cost_network.node[15].content_store 	decision_yes[15] 	0
scalar geant_cost_network.node[15].content_store 	decision_no[15] 	0
scalar geant_cost_network.node[15].content_store 	decision_ratio[15] 	0
scalar geant_cost_network.node[15].content_store 	correction_factor[15] 	0.0027225701061802
scalar geant_cost_network.node[15].content_store 	xi[15] 	1
scalar geant_cost_network.node[16].core_layer 	interests[16] 	0
scalar geant_cost_network.node[16].core_layer 	data[16] 	0
scalar geant_cost_network.node[16].content_store 	p_hit[16] 	-nan
scalar geant_cost_network.node[16].content_store 	hits[16] 	0
scalar geant_cost_network.node[16].content_store 	misses[16] 	0
scalar geant_cost_network.node[16].content_store 	decision_yes[16] 	0
scalar geant_cost_network.node[16].content_store 	decision_no[16] 	0
scalar geant_cost_network.node[16].content_store 	decision_ratio[16] 	0
scalar geant_cost_network.node[16].content_store 	correction_factor[16] 	0.0027225701061802
scalar geant_cost_network.node[16].content_store 	xi[16] 	1
scalar geant_cost_network.node[17].core_layer 	interests[17] 	0
scalar geant_cost_network.node[17].core_layer 	data[17] 	0
scalar geant_cost_network.node[17].content_store 	p_hit[17] 	-nan
scalar geant_cost_network.node[17].content_store 	hits[17] 	0
scalar geant_cost_network.node[17].content_store 	misses[17] 	0
scalar geant_cost_network.node[17].content_store 	decision_yes[17] 	0
scalar geant_cost_network.node[17].content_store 	decision_no[17] 	0
scalar geant_cost_network.node[17].content_store 	decision_ratio[17] 	0
scalar geant_cost_network.node[17].content_store 	correction_factor[17] 	0.0027225701061802
scalar geant_cost_network.node[17].content_store 	xi[17] 	1
scalar geant_cost_network.node[18].core_layer 	interests[18] 	122383
scalar geant_cost_network.node[18].core_layer 	data[18] 	118757
scalar geant_cost_network.node[18].content_store 	p_hit[18] 	0.029628298047931
scalar geant_cost_network.node[18].content_store 	hits[18] 	3626
scalar geant_cost_network.node[18].content_store 	misses[18] 	118757
scalar geant_cost_network.node[18].content_store 	decision_yes[18] 	86
scalar geant_cost_network.node[18].content_store 	decision_no[18] 	118671
scalar geant_cost_network.node[18].content_store 	decision_ratio[18] 	0.00072416783852741
scalar geant_cost_network.node[18].content_store 	correction_factor[18] 	0.0027225701061802
scalar geant_cost_network.node[18].content_store 	xi[18] 	1
scalar geant_cost_network.node[19].core_layer 	interests[19] 	0
scalar geant_cost_network.node[19].core_layer 	data[19] 	0
scalar geant_cost_network.node[19].content_store 	p_hit[19] 	-nan
scalar geant_cost_network.node[19].content_store 	hits[19] 	0
scalar geant_cost_network.node[19].content_store 	misses[19] 	0
scalar geant_cost_network.node[19].content_store 	decision_yes[19] 	0
scalar geant_cost_network.node[19].content_store 	decision_no[19] 	0
scalar geant_cost_network.node[19].content_store 	decision_ratio[19] 	0
scalar geant_cost_network.node[19].content_store 	correction_factor[19] 	0.0027225701061802
scalar geant_cost_network.node[19].content_store 	xi[19] 	1
scalar geant_cost_network.node[20].core_layer 	interests[20] 	180157
scalar geant_cost_network.node[20].core_layer 	data[20] 	167051
scalar geant_cost_network.node[20].content_store 	p_hit[20] 	0.063960878567028
scalar geant_cost_network.node[20].content_store 	hits[20] 	11523
scalar geant_cost_network.node[20].content_store 	misses[20] 	168634
scalar geant_cost_network.node[20].content_store 	decision_yes[20] 	984
scalar geant_cost_network.node[20].content_store 	decision_no[20] 	166067
scalar geant_cost_network.node[20].content_store 	decision_ratio[20] 	0.0058904166990919
scalar geant_cost_network.node[20].content_store 	correction_factor[20] 	0.0027225701061802
scalar geant_cost_network.node[20].content_store 	xi[20] 	1
scalar geant_cost_network.node[21].core_layer 	interests[21] 	207597
scalar geant_cost_network.node[21].core_layer 	data[21] 	152320
scalar geant_cost_network.node[21].content_store 	p_hit[21] 	0.26627070718748
scalar geant_cost_network.node[21].content_store 	hits[21] 	55277
scalar geant_cost_network.node[21].content_store 	misses[21] 	152320
scalar geant_cost_network.node[21].content_store 	decision_yes[21] 	4073
scalar geant_cost_network.node[21].content_store 	decision_no[21] 	148247
scalar geant_cost_network.node[21].content_store 	decision_ratio[21] 	0.026739758403361
scalar geant_cost_network.node[21].content_store 	correction_factor[21] 	0.0027225701061802
scalar geant_cost_network.node[21].content_store 	xi[21] 	1
scalar geant_cost_network.node[22].core_layer 	interests[22] 	373575
scalar geant_cost_network.node[22].core_layer 	repo_load[22] 	373575
scalar geant_cost_network.node[22].core_layer 	data[22] 	0
scalar geant_cost_network.node[22].content_store 	p_hit[22] 	0
scalar geant_cost_network.node[22].content_store 	hits[22] 	0
scalar geant_cost_network.node[22].content_store 	misses[22] 	373575
scalar geant_cost_network.node[22].content_store 	decision_yes[22] 	0
scalar geant_cost_network.node[22].content_store 	decision_no[22] 	373575
scalar geant_cost_network.node[22].content_store 	decision_ratio[22] 	0
scalar geant_cost_network.node[23].core_layer 	interests[23] 	160151
scalar geant_cost_network.node[23].core_layer 	repo_load[23] 	160151
scalar geant_cost_network.node[23].core_layer 	data[23] 	0
scalar geant_cost_network.node[23].content_store 	p_hit[23] 	0
scalar geant_cost_network.node[23].content_store 	hits[23] 	0
scalar geant_cost_network.node[23].content_store 	misses[23] 	160151
scalar geant_cost_network.node[23].content_store 	decision_yes[23] 	0
scalar geant_cost_network.node[23].content_store 	decision_no[23] 	160151
scalar geant_cost_network.node[23].content_store 	decision_ratio[23] 	0
scalar geant_cost_network.node[24].core_layer 	interests[24] 	152320
scalar geant_cost_network.node[24].core_layer 	repo_load[24] 	152320
scalar geant_cost_network.node[24].core_layer 	data[24] 	0
scalar geant_cost_network.node[24].content_store 	p_hit[24] 	0
scalar geant_cost_network.node[24].content_store 	hits[24] 	0
scalar geant_cost_network.node[24].content_store 	misses[24] 	152320
scalar geant_cost_network.node[24].content_store 	decision_yes[24] 	0
scalar geant_cost_network.node[24].content_store 	decision_no[24] 	152320
scalar geant_cost_network.node[24].content_store 	decision_ratio[24] 	0
scalar geant_cost_network.client[5] 	hdistance[5] 	3.6372969497023
scalar geant_cost_network.client[5] 	downloads[5] 	178835
scalar geant_cost_network.client[5] 	avg_time[5] 	0.009767078483
scalar geant_cost_network.client[5] 	interests_sent[5] 	180638
scalar geant_cost_network.client[9] 	hdistance[9] 	3.6735669502911
scalar geant_cost_network.client[9] 	downloads[9] 	178640
scalar geant_cost_network.client[9] 	avg_time[9] 	0.00374046366
scalar geant_cost_network.client[9] 	interests_sent[9] 	179337
scalar geant_cost_network.client[10] 	hdistance[10] 	4.5986850940018
scalar geant_cost_network.client[10] 	downloads[10] 	178720
scalar geant_cost_network.client[10] 	avg_time[10] 	0.005613049854
scalar geant_cost_network.client[10] 	interests_sent[10] 	179771
scalar geant_cost_network.client[12] 	hdistance[12] 	4.0958313288058
scalar geant_cost_network.client[12] 	downloads[12] 	178762
scalar geant_cost_network.client[12] 	avg_time[12] 	0.004765411756
scalar geant_cost_network.client[12] 	interests_sent[12] 	179787
scalar geant_cost_network.client[20] 	hdistance[20] 	4.0027999596807
scalar geant_cost_network.client[20] 	downloads[20] 	178574
scalar geant_cost_network.client[20] 	avg_time[20] 	0.007007992506
scalar geant_cost_network.client[20] 	interests_sent[20] 	180157
