version 2
run General-15-20140626-16:39:07-16631
attr D costprobprodcorr0.01
attr F spr
attr R lru
attr a 1
attr configname General
attr csize 1e3
attr ctlg 1e5
attr datetime 20140626-16:39:07
attr experiment General
attr inifile omnetpp.ini
attr iterationvars "$net=geant_cost, $rep=8, $priceratiovalue=10, $weights=0.333_0.333_0.334, $lambda=100, $a=1, $ctlg=1e5, $F=spr, $ttl=1000, $D=costprobprodcorr0.01, $xi=1, $R=lru, $csize=1e3, $pricebits=0, $mytime=1800"
attr iterationvars2 "$net=geant_cost, $rep=8, $priceratiovalue=10, $weights=0.333_0.333_0.334, $lambda=100, $a=1, $ctlg=1e5, $F=spr, $ttl=1000, $D=costprobprodcorr0.01, $xi=1, $R=lru, $csize=1e3, $pricebits=0, $mytime=1800, $repetition=0"
attr lambda 100
attr measurement "$net=geant_cost, $rep=8, $priceratiovalue=10, $weights=0.333_0.333_0.334, $lambda=100, $a=1, $ctlg=1e5, $F=spr, $ttl=1000, $D=costprobprodcorr0.01, $xi=1, $R=lru, $csize=1e3, $pricebits=0, $mytime=1800"
attr mytime 1800
attr net geant_cost
attr network "networks.${net=geant_cost, abilene_cost}_network"
attr pricebits 0
attr priceratiovalue 10
attr processid 16631
attr rep 8
attr repetition 0
attr replication #0
attr resultdir results
attr runnumber 15
attr seedset 8
attr ttl 1000
attr weights 0.333_0.333_0.334
attr xi 1

scalar . 	a 	1
scalar . 	csize 	1e3
scalar . 	ctlg 	1e5
scalar . 	lambda 	100
scalar . 	mytime 	1800
scalar . 	pricebits 	0
scalar . 	priceratiovalue 	10
scalar . 	rep 	8
scalar . 	ttl 	1000
scalar . 	xi 	1
scalar geant_cost_network.content_distribution 	repo-0 	22
scalar geant_cost_network.content_distribution 	repo-1 	23
scalar geant_cost_network.content_distribution 	repo-2 	24
scalar geant_cost_network.content_distribution 	client-0 	20
scalar geant_cost_network.content_distribution 	client-1 	10
scalar geant_cost_network.content_distribution 	client-2 	12
scalar geant_cost_network.content_distribution 	client-3 	9
scalar geant_cost_network.content_distribution 	client-4 	5
scalar geant_cost_network.content_distribution 	repo-0_card 	33481
scalar geant_cost_network.content_distribution 	repo-1_card 	33257
scalar geant_cost_network.content_distribution 	repo-2_card 	33262
scalar geant_cost_network.statistics 	repo_popularity[0] 	0.31048403425595
scalar geant_cost_network.statistics 	repo_popularity[1] 	0.33358081359224
scalar geant_cost_network.statistics 	repo_popularity[2] 	0.35593515215181
scalar geant_cost_network.statistics 	stabilization_time 	36060
scalar geant_cost_network.node[7].face$o[4].channel 	price[7] 	0
scalar geant_cost_network.node[7].face$o[4].channel 	represented_price[7] 	0
scalar geant_cost_network.node[8].face$o[3].channel 	price[8] 	0
scalar geant_cost_network.node[8].face$o[3].channel 	represented_price[8] 	0
scalar geant_cost_network.node[21].face$o[5].channel 	price[21] 	0
scalar geant_cost_network.node[21].face$o[5].channel 	represented_price[21] 	0
scalar geant_cost_network.node[22].face$o[1].channel 	price[22] 	0
scalar geant_cost_network.node[22].face$o[1].channel 	represented_price[22] 	0
scalar geant_cost_network.node[23].face$o[1].channel 	price[23] 	1
scalar geant_cost_network.node[23].face$o[1].channel 	represented_price[23] 	1
scalar geant_cost_network.node[24].face$o[1].channel 	price[24] 	10
scalar geant_cost_network.node[24].face$o[1].channel 	represented_price[24] 	10
scalar geant_cost_network.statistics 	p_hit 	0.082027707200095
scalar geant_cost_network.statistics 	interests 	145718.08
scalar geant_cost_network.statistics 	data 	109685.6
scalar geant_cost_network.statistics 	hdistance 	3.7372422274194
scalar geant_cost_network.statistics 	avg_time 	0.006003855802
scalar geant_cost_network.statistics 	downloads 	895292
scalar geant_cost_network.statistics 	total_cost 	1689247
scalar geant_cost_network.statistics 	total_replicas 	100000
scalar geant_cost_network.statistics 	inner_hit 	0.33855769961085
scalar geant_cost_network.statistics 	interests_sent 	900810
scalar geant_cost_network.node[0].core_layer 	interests[0] 	0
scalar geant_cost_network.node[0].core_layer 	data[0] 	0
scalar geant_cost_network.node[0].core_layer 	repo_int[0] 	592184
scalar geant_cost_network.node[0].content_store 	p_hit[0] 	-nan
scalar geant_cost_network.node[0].content_store 	hits[0] 	0
scalar geant_cost_network.node[0].content_store 	misses[0] 	0
scalar geant_cost_network.node[0].content_store 	decision_yes[0] 	0
scalar geant_cost_network.node[0].content_store 	decision_no[0] 	0
scalar geant_cost_network.node[0].content_store 	decision_ratio[0] 	0
scalar geant_cost_network.node[0].content_store 	correction_factor[0] 	0.0027225701061802
scalar geant_cost_network.node[0].content_store 	xi[0] 	1
scalar geant_cost_network.node[1].core_layer 	interests[1] 	0
scalar geant_cost_network.node[1].core_layer 	data[1] 	0
scalar geant_cost_network.node[1].content_store 	p_hit[1] 	-nan
scalar geant_cost_network.node[1].content_store 	hits[1] 	0
scalar geant_cost_network.node[1].content_store 	misses[1] 	0
scalar geant_cost_network.node[1].content_store 	decision_yes[1] 	0
scalar geant_cost_network.node[1].content_store 	decision_no[1] 	0
scalar geant_cost_network.node[1].content_store 	decision_ratio[1] 	0
scalar geant_cost_network.node[1].content_store 	correction_factor[1] 	0.0027225701061802
scalar geant_cost_network.node[1].content_store 	xi[1] 	1
scalar geant_cost_network.node[2].core_layer 	interests[2] 	0
scalar geant_cost_network.node[2].core_layer 	data[2] 	0
scalar geant_cost_network.node[2].content_store 	p_hit[2] 	-nan
scalar geant_cost_network.node[2].content_store 	hits[2] 	0
scalar geant_cost_network.node[2].content_store 	misses[2] 	0
scalar geant_cost_network.node[2].content_store 	decision_yes[2] 	0
scalar geant_cost_network.node[2].content_store 	decision_no[2] 	0
scalar geant_cost_network.node[2].content_store 	decision_ratio[2] 	0
scalar geant_cost_network.node[2].content_store 	correction_factor[2] 	0.0027225701061802
scalar geant_cost_network.node[2].content_store 	xi[2] 	1
scalar geant_cost_network.node[3].core_layer 	interests[3] 	231841
scalar geant_cost_network.node[3].core_layer 	data[3] 	219347
scalar geant_cost_network.node[3].content_store 	p_hit[3] 	0.053894695071191
scalar geant_cost_network.node[3].content_store 	hits[3] 	12495
scalar geant_cost_network.node[3].content_store 	misses[3] 	219346
scalar geant_cost_network.node[3].content_store 	decision_yes[3] 	2442
scalar geant_cost_network.node[3].content_store 	decision_no[3] 	216905
scalar geant_cost_network.node[3].content_store 	decision_ratio[3] 	0.011133044901458
scalar geant_cost_network.node[3].content_store 	correction_factor[3] 	0.0027225701061802
scalar geant_cost_network.node[3].content_store 	xi[3] 	1
scalar geant_cost_network.node[4].core_layer 	interests[4] 	324894
scalar geant_cost_network.node[4].core_layer 	data[4] 	271451
scalar geant_cost_network.node[4].content_store 	p_hit[4] 	0.16434590974287
scalar geant_cost_network.node[4].content_store 	hits[4] 	53395
scalar geant_cost_network.node[4].content_store 	misses[4] 	271499
scalar geant_cost_network.node[4].content_store 	decision_yes[4] 	2538
scalar geant_cost_network.node[4].content_store 	decision_no[4] 	268913
scalar geant_cost_network.node[4].content_store 	decision_ratio[4] 	0.0093497537308759
scalar geant_cost_network.node[4].content_store 	correction_factor[4] 	0.0027225701061802
scalar geant_cost_network.node[4].content_store 	xi[4] 	1
scalar geant_cost_network.node[5].core_layer 	interests[5] 	179955
scalar geant_cost_network.node[5].core_layer 	data[5] 	171960
scalar geant_cost_network.node[5].content_store 	p_hit[5] 	0.032669278430719
scalar geant_cost_network.node[5].content_store 	hits[5] 	5879
scalar geant_cost_network.node[5].content_store 	misses[5] 	174076
scalar geant_cost_network.node[5].content_store 	decision_yes[5] 	961
scalar geant_cost_network.node[5].content_store 	decision_no[5] 	170999
scalar geant_cost_network.node[5].content_store 	decision_ratio[5] 	0.0055885089555711
scalar geant_cost_network.node[5].content_store 	correction_factor[5] 	0.0027225701061802
scalar geant_cost_network.node[5].content_store 	xi[5] 	1
scalar geant_cost_network.node[6].core_layer 	interests[6] 	114294
scalar geant_cost_network.node[6].core_layer 	data[6] 	108910
scalar geant_cost_network.node[6].content_store 	p_hit[6] 	0.047097835406933
scalar geant_cost_network.node[6].content_store 	hits[6] 	5383
scalar geant_cost_network.node[6].content_store 	misses[6] 	108911
scalar geant_cost_network.node[6].content_store 	decision_yes[6] 	81
scalar geant_cost_network.node[6].content_store 	decision_no[6] 	108829
scalar geant_cost_network.node[6].content_store 	decision_ratio[6] 	0.00074373335781838
scalar geant_cost_network.node[6].content_store 	correction_factor[6] 	0.0027225701061802
scalar geant_cost_network.node[6].content_store 	xi[6] 	1
scalar geant_cost_network.node[7].core_layer 	interests[7] 	377187
scalar geant_cost_network.node[7].core_layer 	data[7] 	362017
scalar geant_cost_network.node[7].content_store 	p_hit[7] 	0.0402055213992
scalar geant_cost_network.node[7].content_store 	hits[7] 	15165
scalar geant_cost_network.node[7].content_store 	misses[7] 	362022
scalar geant_cost_network.node[7].content_store 	decision_yes[7] 	178
scalar geant_cost_network.node[7].content_store 	decision_no[7] 	361839
scalar geant_cost_network.node[7].content_store 	decision_ratio[7] 	0.00049168961678595
scalar geant_cost_network.node[7].content_store 	correction_factor[7] 	0.0027225701061802
scalar geant_cost_network.node[7].content_store 	xi[7] 	1
scalar geant_cost_network.node[8].core_layer 	interests[8] 	354379
scalar geant_cost_network.node[8].core_layer 	data[8] 	271831
scalar geant_cost_network.node[8].content_store 	p_hit[8] 	0.23293705326783
scalar geant_cost_network.node[8].content_store 	hits[8] 	82548
scalar geant_cost_network.node[8].content_store 	misses[8] 	271831
scalar geant_cost_network.node[8].content_store 	decision_yes[8] 	438
scalar geant_cost_network.node[8].content_store 	decision_no[8] 	271393
scalar geant_cost_network.node[8].content_store 	decision_ratio[8] 	0.0016112952533008
scalar geant_cost_network.node[8].content_store 	correction_factor[8] 	0.0027225701061802
scalar geant_cost_network.node[8].content_store 	xi[8] 	1
scalar geant_cost_network.node[9].core_layer 	interests[9] 	413626
scalar geant_cost_network.node[9].core_layer 	data[9] 	392398
scalar geant_cost_network.node[9].content_store 	p_hit[9] 	0.044554742690256
scalar geant_cost_network.node[9].content_store 	hits[9] 	18429
scalar geant_cost_network.node[9].content_store 	misses[9] 	395197
scalar geant_cost_network.node[9].content_store 	decision_yes[9] 	1898
scalar geant_cost_network.node[9].content_store 	decision_no[9] 	390500
scalar geant_cost_network.node[9].content_store 	decision_ratio[9] 	0.0048369257743414
scalar geant_cost_network.node[9].content_store 	correction_factor[9] 	0.0027225701061802
scalar geant_cost_network.node[9].content_store 	xi[9] 	1
scalar geant_cost_network.node[10].core_layer 	interests[10] 	179843
scalar geant_cost_network.node[10].core_layer 	data[10] 	173704
scalar geant_cost_network.node[10].content_store 	p_hit[10] 	0.027329392859327
scalar geant_cost_network.node[10].content_store 	hits[10] 	4915
scalar geant_cost_network.node[10].content_store 	misses[10] 	174928
scalar geant_cost_network.node[10].content_store 	decision_yes[10] 	938
scalar geant_cost_network.node[10].content_store 	decision_no[10] 	172766
scalar geant_cost_network.node[10].content_store 	decision_ratio[10] 	0.0053999907889283
scalar geant_cost_network.node[10].content_store 	correction_factor[10] 	0.0027225701061802
scalar geant_cost_network.node[10].content_store 	xi[10] 	1
scalar geant_cost_network.node[11].core_layer 	interests[11] 	0
scalar geant_cost_network.node[11].core_layer 	data[11] 	0
scalar geant_cost_network.node[11].content_store 	p_hit[11] 	-nan
scalar geant_cost_network.node[11].content_store 	hits[11] 	0
scalar geant_cost_network.node[11].content_store 	misses[11] 	0
scalar geant_cost_network.node[11].content_store 	decision_yes[11] 	0
scalar geant_cost_network.node[11].content_store 	decision_no[11] 	0
scalar geant_cost_network.node[11].content_store 	decision_ratio[11] 	0
scalar geant_cost_network.node[11].content_store 	correction_factor[11] 	0.0027225701061802
scalar geant_cost_network.node[11].content_store 	xi[11] 	1
scalar geant_cost_network.node[12].core_layer 	interests[12] 	302005
scalar geant_cost_network.node[12].core_layer 	data[12] 	291853
scalar geant_cost_network.node[12].content_store 	p_hit[12] 	0.023291005115809
scalar geant_cost_network.node[12].content_store 	hits[12] 	7034
scalar geant_cost_network.node[12].content_store 	misses[12] 	294971
scalar geant_cost_network.node[12].content_store 	decision_yes[12] 	2486
scalar geant_cost_network.node[12].content_store 	decision_no[12] 	289367
scalar geant_cost_network.node[12].content_store 	decision_ratio[12] 	0.008517986794722
scalar geant_cost_network.node[12].content_store 	correction_factor[12] 	0.0027225701061802
scalar geant_cost_network.node[12].content_store 	xi[12] 	1
scalar geant_cost_network.node[13].core_layer 	interests[13] 	0
scalar geant_cost_network.node[13].core_layer 	data[13] 	0
scalar geant_cost_network.node[13].content_store 	p_hit[13] 	-nan
scalar geant_cost_network.node[13].content_store 	hits[13] 	0
scalar geant_cost_network.node[13].content_store 	misses[13] 	0
scalar geant_cost_network.node[13].content_store 	decision_yes[13] 	0
scalar geant_cost_network.node[13].content_store 	decision_no[13] 	0
scalar geant_cost_network.node[13].content_store 	decision_ratio[13] 	0
scalar geant_cost_network.node[13].content_store 	correction_factor[13] 	0.0027225701061802
scalar geant_cost_network.node[13].content_store 	xi[13] 	1
scalar geant_cost_network.node[14].core_layer 	interests[14] 	57667
scalar geant_cost_network.node[14].core_layer 	data[14] 	53028
scalar geant_cost_network.node[14].content_store 	p_hit[14] 	0.080444621707389
scalar geant_cost_network.node[14].content_store 	hits[14] 	4639
scalar geant_cost_network.node[14].content_store 	misses[14] 	53028
scalar geant_cost_network.node[14].content_store 	decision_yes[14] 	814
scalar geant_cost_network.node[14].content_store 	decision_no[14] 	52214
scalar geant_cost_network.node[14].content_store 	decision_ratio[14] 	0.015350380930829
scalar geant_cost_network.node[14].content_store 	correction_factor[14] 	0.0027225701061802
scalar geant_cost_network.node[14].content_store 	xi[14] 	1
scalar geant_cost_network.node[15].core_layer 	interests[15] 	0
scalar geant_cost_network.node[15].core_layer 	data[15] 	0
scalar geant_cost_network.node[15].content_store 	p_hit[15] 	-nan
scalar geant_cost_network.node[15].content_store 	hits[15] 	0
scalar geant_cost_network.node[15].content_store 	misses[15] 	0
scalar geant_cost_network.node[15].content_store 	decision_yes[15] 	0
scalar geant_cost_network.node[15].content_store 	decision_no[15] 	0
scalar geant_cost_network.node[15].content_store 	decision_ratio[15] 	0
scalar geant_cost_network.node[15].content_store 	correction_factor[15] 	0.0027225701061802
scalar geant_cost_network.node[15].content_store 	xi[15] 	1
scalar geant_cost_network.node[16].core_layer 	interests[16] 	0
scalar geant_cost_network.node[16].core_layer 	data[16] 	0
scalar geant_cost_network.node[16].content_store 	p_hit[16] 	-nan
scalar geant_cost_network.node[16].content_store 	hits[16] 	0
scalar geant_cost_network.node[16].content_store 	misses[16] 	0
scalar geant_cost_network.node[16].content_store 	decision_yes[16] 	0
scalar geant_cost_network.node[16].content_store 	decision_no[16] 	0
scalar geant_cost_network.node[16].content_store 	decision_ratio[16] 	0
scalar geant_cost_network.node[16].content_store 	correction_factor[16] 	0.0027225701061802
scalar geant_cost_network.node[16].content_store 	xi[16] 	1
scalar geant_cost_network.node[17].core_layer 	interests[17] 	0
scalar geant_cost_network.node[17].core_layer 	data[17] 	0
scalar geant_cost_network.node[17].content_store 	p_hit[17] 	-nan
scalar geant_cost_network.node[17].content_store 	hits[17] 	0
scalar geant_cost_network.node[17].content_store 	misses[17] 	0
scalar geant_cost_network.node[17].content_store 	decision_yes[17] 	0
scalar geant_cost_network.node[17].content_store 	decision_no[17] 	0
scalar geant_cost_network.node[17].content_store 	decision_ratio[17] 	0
scalar geant_cost_network.node[17].content_store 	correction_factor[17] 	0.0027225701061802
scalar geant_cost_network.node[17].content_store 	xi[17] 	1
scalar geant_cost_network.node[18].core_layer 	interests[18] 	110110
scalar geant_cost_network.node[18].core_layer 	data[18] 	105548
scalar geant_cost_network.node[18].content_store 	p_hit[18] 	0.041431295976751
scalar geant_cost_network.node[18].content_store 	hits[18] 	4562
scalar geant_cost_network.node[18].content_store 	misses[18] 	105548
scalar geant_cost_network.node[18].content_store 	decision_yes[18] 	77
scalar geant_cost_network.node[18].content_store 	decision_no[18] 	105471
scalar geant_cost_network.node[18].content_store 	decision_ratio[18] 	0.00072952590290673
scalar geant_cost_network.node[18].content_store 	correction_factor[18] 	0.0027225701061802
scalar geant_cost_network.node[18].content_store 	xi[18] 	1
scalar geant_cost_network.node[19].core_layer 	interests[19] 	0
scalar geant_cost_network.node[19].core_layer 	data[19] 	0
scalar geant_cost_network.node[19].content_store 	p_hit[19] 	-nan
scalar geant_cost_network.node[19].content_store 	hits[19] 	0
scalar geant_cost_network.node[19].content_store 	misses[19] 	0
scalar geant_cost_network.node[19].content_store 	decision_yes[19] 	0
scalar geant_cost_network.node[19].content_store 	decision_no[19] 	0
scalar geant_cost_network.node[19].content_store 	decision_ratio[19] 	0
scalar geant_cost_network.node[19].content_store 	correction_factor[19] 	0.0027225701061802
scalar geant_cost_network.node[19].content_store 	xi[19] 	1
scalar geant_cost_network.node[20].core_layer 	interests[20] 	180277
scalar geant_cost_network.node[20].core_layer 	data[20] 	167213
scalar geant_cost_network.node[20].content_store 	p_hit[20] 	0.069720485697011
scalar geant_cost_network.node[20].content_store 	hits[20] 	12569
scalar geant_cost_network.node[20].content_store 	misses[20] 	167708
scalar geant_cost_network.node[20].content_store 	decision_yes[20] 	990
scalar geant_cost_network.node[20].content_store 	decision_no[20] 	166223
scalar geant_cost_network.node[20].content_store 	decision_ratio[20] 	0.0059205922984457
scalar geant_cost_network.node[20].content_store 	correction_factor[20] 	0.0027225701061802
scalar geant_cost_network.node[20].content_store 	xi[20] 	1
scalar geant_cost_network.node[21].core_layer 	interests[21] 	224690
scalar geant_cost_network.node[21].core_layer 	data[21] 	152880
scalar geant_cost_network.node[21].content_store 	p_hit[21] 	0.31959588766745
scalar geant_cost_network.node[21].content_store 	hits[21] 	71810
scalar geant_cost_network.node[21].content_store 	misses[21] 	152880
scalar geant_cost_network.node[21].content_store 	decision_yes[21] 	4167
scalar geant_cost_network.node[21].content_store 	decision_no[21] 	148713
scalar geant_cost_network.node[21].content_store 	decision_ratio[21] 	0.027256671899529
scalar geant_cost_network.node[21].content_store 	correction_factor[21] 	0.0027225701061802
scalar geant_cost_network.node[21].content_store 	xi[21] 	1
scalar geant_cost_network.node[22].core_layer 	interests[22] 	278857
scalar geant_cost_network.node[22].core_layer 	repo_load[22] 	278857
scalar geant_cost_network.node[22].core_layer 	data[22] 	0
scalar geant_cost_network.node[22].content_store 	p_hit[22] 	0
scalar geant_cost_network.node[22].content_store 	hits[22] 	0
scalar geant_cost_network.node[22].content_store 	misses[22] 	278857
scalar geant_cost_network.node[22].content_store 	decision_yes[22] 	0
scalar geant_cost_network.node[22].content_store 	decision_no[22] 	278857
scalar geant_cost_network.node[22].content_store 	decision_ratio[22] 	0
scalar geant_cost_network.node[23].core_layer 	interests[23] 	160447
scalar geant_cost_network.node[23].core_layer 	repo_load[23] 	160447
scalar geant_cost_network.node[23].core_layer 	data[23] 	0
scalar geant_cost_network.node[23].content_store 	p_hit[23] 	0
scalar geant_cost_network.node[23].content_store 	hits[23] 	0
scalar geant_cost_network.node[23].content_store 	misses[23] 	160447
scalar geant_cost_network.node[23].content_store 	decision_yes[23] 	0
scalar geant_cost_network.node[23].content_store 	decision_no[23] 	160447
scalar geant_cost_network.node[23].content_store 	decision_ratio[23] 	0
scalar geant_cost_network.node[24].core_layer 	interests[24] 	152880
scalar geant_cost_network.node[24].core_layer 	repo_load[24] 	152880
scalar geant_cost_network.node[24].core_layer 	data[24] 	0
scalar geant_cost_network.node[24].content_store 	p_hit[24] 	0
scalar geant_cost_network.node[24].content_store 	hits[24] 	0
scalar geant_cost_network.node[24].content_store 	misses[24] 	152880
scalar geant_cost_network.node[24].content_store 	decision_yes[24] 	0
scalar geant_cost_network.node[24].content_store 	decision_no[24] 	152880
scalar geant_cost_network.node[24].content_store 	decision_ratio[24] 	0
scalar geant_cost_network.client[5] 	hdistance[5] 	3.4481131810233
scalar geant_cost_network.client[5] 	downloads[5] 	177839
scalar geant_cost_network.client[5] 	avg_time[5] 	0.009846293772
scalar geant_cost_network.client[5] 	interests_sent[5] 	179955
scalar geant_cost_network.client[9] 	hdistance[9] 	3.4664692572003
scalar geant_cost_network.client[9] 	downloads[9] 	178985
scalar geant_cost_network.client[9] 	avg_time[9] 	0.003728330189
scalar geant_cost_network.client[9] 	interests_sent[9] 	179910
scalar geant_cost_network.client[10] 	hdistance[10] 	4.3959041311394
scalar geant_cost_network.client[10] 	downloads[10] 	178619
scalar geant_cost_network.client[10] 	avg_time[10] 	0.005614910434
scalar geant_cost_network.client[10] 	interests_sent[10] 	179843
scalar geant_cost_network.client[12] 	hdistance[12] 	3.7736342583594
scalar geant_cost_network.client[12] 	downloads[12] 	180067
scalar geant_cost_network.client[12] 	avg_time[12] 	0.004492991935
scalar geant_cost_network.client[12] 	interests_sent[12] 	180825
scalar geant_cost_network.client[20] 	hdistance[20] 	3.6020903093747
scalar geant_cost_network.client[20] 	downloads[20] 	179782
scalar geant_cost_network.client[20] 	avg_time[20] 	0.006336752684
scalar geant_cost_network.client[20] 	interests_sent[20] 	180277
