version 2
run General-23-20140627-19:22:46-15379
attr D costprobprodcorr0.01
attr F spr
attr R lru
attr a 1
attr configname General
attr csize 1e3
attr ctlg 1e5
attr datetime 20140627-19:22:46
attr experiment General
attr inifile omnetpp.ini
attr iterationvars "$net=geant_cost, $rep=20, $priceratiovalue=10, $weights=0.333_0.333_0.334, $lambda=100, $a=1, $ctlg=1e5, $F=spr, $ttl=1000, $D=costprobprodcorr0.01, $xi=1, $R=lru, $csize=1e3, $pricebits=0, $window=60, $variance=0.05, $mytime=1800"
attr iterationvars2 "$net=geant_cost, $rep=20, $priceratiovalue=10, $weights=0.333_0.333_0.334, $lambda=100, $a=1, $ctlg=1e5, $F=spr, $ttl=1000, $D=costprobprodcorr0.01, $xi=1, $R=lru, $csize=1e3, $pricebits=0, $window=60, $variance=0.05, $mytime=1800, $repetition=0"
attr lambda 100
attr measurement "$net=geant_cost, $rep=20, $priceratiovalue=10, $weights=0.333_0.333_0.334, $lambda=100, $a=1, $ctlg=1e5, $F=spr, $ttl=1000, $D=costprobprodcorr0.01, $xi=1, $R=lru, $csize=1e3, $pricebits=0, $window=60, $variance=0.05, $mytime=1800"
attr mytime 1800
attr net geant_cost
attr network "networks.${net=geant_cost, abilene_cost}_network"
attr pricebits 0
attr priceratiovalue 10
attr processid 15379
attr rep 20
attr repetition 0
attr replication #0
attr resultdir results
attr runnumber 23
attr seedset 20
attr ttl 1000
attr variance 0.05
attr weights 0.333_0.333_0.334
attr window 60
attr xi 1

scalar . 	a 	1
scalar . 	csize 	1e3
scalar . 	ctlg 	1e5
scalar . 	lambda 	100
scalar . 	mytime 	1800
scalar . 	pricebits 	0
scalar . 	priceratiovalue 	10
scalar . 	rep 	20
scalar . 	ttl 	1000
scalar . 	variance 	0.05
scalar . 	window 	60
scalar . 	xi 	1
scalar geant_cost_network.content_distribution 	repo-0 	22
scalar geant_cost_network.content_distribution 	repo-1 	23
scalar geant_cost_network.content_distribution 	repo-2 	24
scalar geant_cost_network.content_distribution 	client-0 	20
scalar geant_cost_network.content_distribution 	client-1 	10
scalar geant_cost_network.content_distribution 	client-2 	12
scalar geant_cost_network.content_distribution 	client-3 	9
scalar geant_cost_network.content_distribution 	client-4 	5
scalar geant_cost_network.content_distribution 	repo-0_card 	33321
scalar geant_cost_network.content_distribution 	repo-1_card 	33296
scalar geant_cost_network.content_distribution 	repo-2_card 	33383
scalar geant_cost_network.statistics 	repo_popularity[0] 	0.30078651597297
scalar geant_cost_network.statistics 	repo_popularity[1] 	0.29276091736323
scalar geant_cost_network.statistics 	repo_popularity[2] 	0.4064525666638
scalar geant_cost_network.statistics 	stabilization_time 	36060
scalar geant_cost_network.node[7].face$o[4].channel 	price[7] 	0
scalar geant_cost_network.node[7].face$o[4].channel 	represented_price[7] 	0
scalar geant_cost_network.node[8].face$o[3].channel 	price[8] 	0
scalar geant_cost_network.node[8].face$o[3].channel 	represented_price[8] 	0
scalar geant_cost_network.node[21].face$o[5].channel 	price[21] 	0
scalar geant_cost_network.node[21].face$o[5].channel 	represented_price[21] 	0
scalar geant_cost_network.node[22].face$o[1].channel 	price[22] 	0
scalar geant_cost_network.node[22].face$o[1].channel 	represented_price[22] 	0
scalar geant_cost_network.node[23].face$o[1].channel 	price[23] 	1
scalar geant_cost_network.node[23].face$o[1].channel 	represented_price[23] 	1
scalar geant_cost_network.node[24].face$o[1].channel 	price[24] 	10
scalar geant_cost_network.node[24].face$o[1].channel 	represented_price[24] 	10
scalar geant_cost_network.statistics 	p_hit 	0.084476391635424
scalar geant_cost_network.statistics 	interests 	144950.32
scalar geant_cost_network.statistics 	data 	108947.56
scalar geant_cost_network.statistics 	hdistance 	3.7201521003636
scalar geant_cost_network.statistics 	avg_time 	0.006065050514
scalar geant_cost_network.statistics 	downloads 	893708
scalar geant_cost_network.statistics 	total_cost 	1702256
scalar geant_cost_network.statistics 	total_replicas 	100000
scalar geant_cost_network.statistics 	inner_hit 	0.34931543636176
scalar geant_cost_network.statistics 	interests_sent 	900069
scalar geant_cost_network.node[0].core_layer 	interests[0] 	0
scalar geant_cost_network.node[0].core_layer 	data[0] 	0
scalar geant_cost_network.node[0].core_layer 	repo_int[0] 	581522
scalar geant_cost_network.node[0].content_store 	p_hit[0] 	-nan
scalar geant_cost_network.node[0].content_store 	hits[0] 	0
scalar geant_cost_network.node[0].content_store 	misses[0] 	0
scalar geant_cost_network.node[0].content_store 	decision_yes[0] 	0
scalar geant_cost_network.node[0].content_store 	decision_no[0] 	0
scalar geant_cost_network.node[0].content_store 	decision_ratio[0] 	0
scalar geant_cost_network.node[0].content_store 	correction_factor[0] 	0.0027225701061802
scalar geant_cost_network.node[0].content_store 	xi[0] 	1
scalar geant_cost_network.node[1].core_layer 	interests[1] 	0
scalar geant_cost_network.node[1].core_layer 	data[1] 	0
scalar geant_cost_network.node[1].content_store 	p_hit[1] 	-nan
scalar geant_cost_network.node[1].content_store 	hits[1] 	0
scalar geant_cost_network.node[1].content_store 	misses[1] 	0
scalar geant_cost_network.node[1].content_store 	decision_yes[1] 	0
scalar geant_cost_network.node[1].content_store 	decision_no[1] 	0
scalar geant_cost_network.node[1].content_store 	decision_ratio[1] 	0
scalar geant_cost_network.node[1].content_store 	correction_factor[1] 	0.0027225701061802
scalar geant_cost_network.node[1].content_store 	xi[1] 	1
scalar geant_cost_network.node[2].core_layer 	interests[2] 	0
scalar geant_cost_network.node[2].core_layer 	data[2] 	0
scalar geant_cost_network.node[2].content_store 	p_hit[2] 	-nan
scalar geant_cost_network.node[2].content_store 	hits[2] 	0
scalar geant_cost_network.node[2].content_store 	misses[2] 	0
scalar geant_cost_network.node[2].content_store 	decision_yes[2] 	0
scalar geant_cost_network.node[2].content_store 	decision_no[2] 	0
scalar geant_cost_network.node[2].content_store 	decision_ratio[2] 	0
scalar geant_cost_network.node[2].content_store 	correction_factor[2] 	0.0027225701061802
scalar geant_cost_network.node[2].content_store 	xi[2] 	1
scalar geant_cost_network.node[3].core_layer 	interests[3] 	248993
scalar geant_cost_network.node[3].core_layer 	data[3] 	224109
scalar geant_cost_network.node[3].content_store 	p_hit[3] 	0.099938552489427
scalar geant_cost_network.node[3].content_store 	hits[3] 	24884
scalar geant_cost_network.node[3].content_store 	misses[3] 	224109
scalar geant_cost_network.node[3].content_store 	decision_yes[3] 	2377
scalar geant_cost_network.node[3].content_store 	decision_no[3] 	221732
scalar geant_cost_network.node[3].content_store 	decision_ratio[3] 	0.010606445970488
scalar geant_cost_network.node[3].content_store 	correction_factor[3] 	0.0027225701061802
scalar geant_cost_network.node[3].content_store 	xi[3] 	1
scalar geant_cost_network.node[4].core_layer 	interests[4] 	324447
scalar geant_cost_network.node[4].core_layer 	data[4] 	290174
scalar geant_cost_network.node[4].content_store 	p_hit[4] 	0.10533307443126
scalar geant_cost_network.node[4].content_store 	hits[4] 	34175
scalar geant_cost_network.node[4].content_store 	misses[4] 	290272
scalar geant_cost_network.node[4].content_store 	decision_yes[4] 	2441
scalar geant_cost_network.node[4].content_store 	decision_no[4] 	287733
scalar geant_cost_network.node[4].content_store 	decision_ratio[4] 	0.0084121940628726
scalar geant_cost_network.node[4].content_store 	correction_factor[4] 	0.0027225701061802
scalar geant_cost_network.node[4].content_store 	xi[4] 	1
scalar geant_cost_network.node[5].core_layer 	interests[5] 	179996
scalar geant_cost_network.node[5].core_layer 	data[5] 	167285
scalar geant_cost_network.node[5].content_store 	p_hit[5] 	0.0591679815107
scalar geant_cost_network.node[5].content_store 	hits[5] 	10650
scalar geant_cost_network.node[5].content_store 	misses[5] 	169346
scalar geant_cost_network.node[5].content_store 	decision_yes[5] 	889
scalar geant_cost_network.node[5].content_store 	decision_no[5] 	166396
scalar geant_cost_network.node[5].content_store 	decision_ratio[5] 	0.0053142840063365
scalar geant_cost_network.node[5].content_store 	correction_factor[5] 	0.0027225701061802
scalar geant_cost_network.node[5].content_store 	xi[5] 	1
scalar geant_cost_network.node[6].core_layer 	interests[6] 	103493
scalar geant_cost_network.node[6].core_layer 	data[6] 	99630
scalar geant_cost_network.node[6].content_store 	p_hit[6] 	0.037326195974607
scalar geant_cost_network.node[6].content_store 	hits[6] 	3863
scalar geant_cost_network.node[6].content_store 	misses[6] 	99630
scalar geant_cost_network.node[6].content_store 	decision_yes[6] 	84
scalar geant_cost_network.node[6].content_store 	decision_no[6] 	99546
scalar geant_cost_network.node[6].content_store 	decision_ratio[6] 	0.00084311954230653
scalar geant_cost_network.node[6].content_store 	correction_factor[6] 	0.0027225701061802
scalar geant_cost_network.node[6].content_store 	xi[6] 	1
scalar geant_cost_network.node[7].core_layer 	interests[7] 	362413
scalar geant_cost_network.node[7].core_layer 	data[7] 	353060
scalar geant_cost_network.node[7].content_store 	p_hit[7] 	0.025705479659946
scalar geant_cost_network.node[7].content_store 	hits[7] 	9316
scalar geant_cost_network.node[7].content_store 	misses[7] 	353097
scalar geant_cost_network.node[7].content_store 	decision_yes[7] 	169
scalar geant_cost_network.node[7].content_store 	decision_no[7] 	352891
scalar geant_cost_network.node[7].content_store 	decision_ratio[7] 	0.00047867218036594
scalar geant_cost_network.node[7].content_store 	correction_factor[7] 	0.0027225701061802
scalar geant_cost_network.node[7].content_store 	xi[7] 	1
scalar geant_cost_network.node[8].core_layer 	interests[8] 	330632
scalar geant_cost_network.node[8].core_layer 	data[8] 	265050
scalar geant_cost_network.node[8].content_store 	p_hit[8] 	0.19835345641075
scalar geant_cost_network.node[8].content_store 	hits[8] 	65582
scalar geant_cost_network.node[8].content_store 	misses[8] 	265050
scalar geant_cost_network.node[8].content_store 	decision_yes[8] 	414
scalar geant_cost_network.node[8].content_store 	decision_no[8] 	264636
scalar geant_cost_network.node[8].content_store 	decision_ratio[8] 	0.0015619694397284
scalar geant_cost_network.node[8].content_store 	correction_factor[8] 	0.0027225701061802
scalar geant_cost_network.node[8].content_store 	xi[8] 	1
scalar geant_cost_network.node[9].core_layer 	interests[9] 	406289
scalar geant_cost_network.node[9].core_layer 	data[9] 	382510
scalar geant_cost_network.node[9].content_store 	p_hit[9] 	0.049371260359006
scalar geant_cost_network.node[9].content_store 	hits[9] 	20059
scalar geant_cost_network.node[9].content_store 	misses[9] 	386230
scalar geant_cost_network.node[9].content_store 	decision_yes[9] 	1904
scalar geant_cost_network.node[9].content_store 	decision_no[9] 	380606
scalar geant_cost_network.node[9].content_store 	decision_ratio[9] 	0.0049776476431989
scalar geant_cost_network.node[9].content_store 	correction_factor[9] 	0.0027225701061802
scalar geant_cost_network.node[9].content_store 	xi[9] 	1
scalar geant_cost_network.node[10].core_layer 	interests[10] 	179802
scalar geant_cost_network.node[10].core_layer 	data[10] 	173400
scalar geant_cost_network.node[10].content_store 	p_hit[10] 	0.027085349439939
scalar geant_cost_network.node[10].content_store 	hits[10] 	4870
scalar geant_cost_network.node[10].content_store 	misses[10] 	174932
scalar geant_cost_network.node[10].content_store 	decision_yes[10] 	894
scalar geant_cost_network.node[10].content_store 	decision_no[10] 	172506
scalar geant_cost_network.node[10].content_store 	decision_ratio[10] 	0.0051557093425606
scalar geant_cost_network.node[10].content_store 	correction_factor[10] 	0.0027225701061802
scalar geant_cost_network.node[10].content_store 	xi[10] 	1
scalar geant_cost_network.node[11].core_layer 	interests[11] 	0
scalar geant_cost_network.node[11].core_layer 	data[11] 	0
scalar geant_cost_network.node[11].content_store 	p_hit[11] 	-nan
scalar geant_cost_network.node[11].content_store 	hits[11] 	0
scalar geant_cost_network.node[11].content_store 	misses[11] 	0
scalar geant_cost_network.node[11].content_store 	decision_yes[11] 	0
scalar geant_cost_network.node[11].content_store 	decision_no[11] 	0
scalar geant_cost_network.node[11].content_store 	decision_ratio[11] 	0
scalar geant_cost_network.node[11].content_store 	correction_factor[11] 	0.0027225701061802
scalar geant_cost_network.node[11].content_store 	xi[11] 	1
scalar geant_cost_network.node[12].core_layer 	interests[12] 	315175
scalar geant_cost_network.node[12].core_layer 	data[12] 	301693
scalar geant_cost_network.node[12].content_store 	p_hit[12] 	0.028216070437059
scalar geant_cost_network.node[12].content_store 	hits[12] 	8893
scalar geant_cost_network.node[12].content_store 	misses[12] 	306282
scalar geant_cost_network.node[12].content_store 	decision_yes[12] 	2515
scalar geant_cost_network.node[12].content_store 	decision_no[12] 	299178
scalar geant_cost_network.node[12].content_store 	decision_ratio[12] 	0.0083362888764406
scalar geant_cost_network.node[12].content_store 	correction_factor[12] 	0.0027225701061802
scalar geant_cost_network.node[12].content_store 	xi[12] 	1
scalar geant_cost_network.node[13].core_layer 	interests[13] 	0
scalar geant_cost_network.node[13].core_layer 	data[13] 	0
scalar geant_cost_network.node[13].content_store 	p_hit[13] 	-nan
scalar geant_cost_network.node[13].content_store 	hits[13] 	0
scalar geant_cost_network.node[13].content_store 	misses[13] 	0
scalar geant_cost_network.node[13].content_store 	decision_yes[13] 	0
scalar geant_cost_network.node[13].content_store 	decision_no[13] 	0
scalar geant_cost_network.node[13].content_store 	decision_ratio[13] 	0
scalar geant_cost_network.node[13].content_store 	correction_factor[13] 	0.0027225701061802
scalar geant_cost_network.node[13].content_store 	xi[13] 	1
scalar geant_cost_network.node[14].core_layer 	interests[14] 	63793
scalar geant_cost_network.node[14].core_layer 	data[14] 	59585
scalar geant_cost_network.node[14].content_store 	p_hit[14] 	0.065963350210838
scalar geant_cost_network.node[14].content_store 	hits[14] 	4208
scalar geant_cost_network.node[14].content_store 	misses[14] 	59585
scalar geant_cost_network.node[14].content_store 	decision_yes[14] 	882
scalar geant_cost_network.node[14].content_store 	decision_no[14] 	58703
scalar geant_cost_network.node[14].content_store 	decision_ratio[14] 	0.014802383150122
scalar geant_cost_network.node[14].content_store 	correction_factor[14] 	0.0027225701061802
scalar geant_cost_network.node[14].content_store 	xi[14] 	1
scalar geant_cost_network.node[15].core_layer 	interests[15] 	0
scalar geant_cost_network.node[15].core_layer 	data[15] 	0
scalar geant_cost_network.node[15].content_store 	p_hit[15] 	-nan
scalar geant_cost_network.node[15].content_store 	hits[15] 	0
scalar geant_cost_network.node[15].content_store 	misses[15] 	0
scalar geant_cost_network.node[15].content_store 	decision_yes[15] 	0
scalar geant_cost_network.node[15].content_store 	decision_no[15] 	0
scalar geant_cost_network.node[15].content_store 	decision_ratio[15] 	0
scalar geant_cost_network.node[15].content_store 	correction_factor[15] 	0.0027225701061802
scalar geant_cost_network.node[15].content_store 	xi[15] 	1
scalar geant_cost_network.node[16].core_layer 	interests[16] 	0
scalar geant_cost_network.node[16].core_layer 	data[16] 	0
scalar geant_cost_network.node[16].content_store 	p_hit[16] 	-nan
scalar geant_cost_network.node[16].content_store 	hits[16] 	0
scalar geant_cost_network.node[16].content_store 	misses[16] 	0
scalar geant_cost_network.node[16].content_store 	decision_yes[16] 	0
scalar geant_cost_network.node[16].content_store 	decision_no[16] 	0
scalar geant_cost_network.node[16].content_store 	decision_ratio[16] 	0
scalar geant_cost_network.node[16].content_store 	correction_factor[16] 	0.0027225701061802
scalar geant_cost_network.node[16].content_store 	xi[16] 	1
scalar geant_cost_network.node[17].core_layer 	interests[17] 	0
scalar geant_cost_network.node[17].core_layer 	data[17] 	0
scalar geant_cost_network.node[17].content_store 	p_hit[17] 	-nan
scalar geant_cost_network.node[17].content_store 	hits[17] 	0
scalar geant_cost_network.node[17].content_store 	misses[17] 	0
scalar geant_cost_network.node[17].content_store 	decision_yes[17] 	0
scalar geant_cost_network.node[17].content_store 	decision_no[17] 	0
scalar geant_cost_network.node[17].content_store 	decision_ratio[17] 	0
scalar geant_cost_network.node[17].content_store 	correction_factor[17] 	0.0027225701061802
scalar geant_cost_network.node[17].content_store 	xi[17] 	1
scalar geant_cost_network.node[18].core_layer 	interests[18] 	104369
scalar geant_cost_network.node[18].core_layer 	data[18] 	100339
scalar geant_cost_network.node[18].content_store 	p_hit[18] 	0.038612998112466
scalar geant_cost_network.node[18].content_store 	hits[18] 	4030
scalar geant_cost_network.node[18].content_store 	misses[18] 	100339
scalar geant_cost_network.node[18].content_store 	decision_yes[18] 	67
scalar geant_cost_network.node[18].content_store 	decision_no[18] 	100272
scalar geant_cost_network.node[18].content_store 	decision_ratio[18] 	0.00066773637369318
scalar geant_cost_network.node[18].content_store 	correction_factor[18] 	0.0027225701061802
scalar geant_cost_network.node[18].content_store 	xi[18] 	1
scalar geant_cost_network.node[19].core_layer 	interests[19] 	0
scalar geant_cost_network.node[19].core_layer 	data[19] 	0
scalar geant_cost_network.node[19].content_store 	p_hit[19] 	-nan
scalar geant_cost_network.node[19].content_store 	hits[19] 	0
scalar geant_cost_network.node[19].content_store 	misses[19] 	0
scalar geant_cost_network.node[19].content_store 	decision_yes[19] 	0
scalar geant_cost_network.node[19].content_store 	decision_no[19] 	0
scalar geant_cost_network.node[19].content_store 	decision_ratio[19] 	0
scalar geant_cost_network.node[19].content_store 	correction_factor[19] 	0.0027225701061802
scalar geant_cost_network.node[19].content_store 	xi[19] 	1
scalar geant_cost_network.node[20].core_layer 	interests[20] 	179701
scalar geant_cost_network.node[20].core_layer 	data[20] 	152312
scalar geant_cost_network.node[20].content_store 	p_hit[20] 	0.15025514604816
scalar geant_cost_network.node[20].content_store 	hits[20] 	27001
scalar geant_cost_network.node[20].content_store 	misses[20] 	152700
scalar geant_cost_network.node[20].content_store 	decision_yes[20] 	985
scalar geant_cost_network.node[20].content_store 	decision_no[20] 	151327
scalar geant_cost_network.node[20].content_store 	decision_ratio[20] 	0.0064669888124376
scalar geant_cost_network.node[20].content_store 	correction_factor[20] 	0.0027225701061802
scalar geant_cost_network.node[20].content_store 	xi[20] 	1
scalar geant_cost_network.node[21].core_layer 	interests[21] 	243133
scalar geant_cost_network.node[21].core_layer 	data[21] 	154542
scalar geant_cost_network.node[21].content_store 	p_hit[21] 	0.36437258619768
scalar geant_cost_network.node[21].content_store 	hits[21] 	88591
scalar geant_cost_network.node[21].content_store 	misses[21] 	154542
scalar geant_cost_network.node[21].content_store 	decision_yes[21] 	4151
scalar geant_cost_network.node[21].content_store 	decision_no[21] 	150391
scalar geant_cost_network.node[21].content_store 	decision_ratio[21] 	0.026860012164978
scalar geant_cost_network.node[21].content_store 	correction_factor[21] 	0.0027225701061802
scalar geant_cost_network.node[21].content_store 	xi[21] 	1
scalar geant_cost_network.node[22].core_layer 	interests[22] 	270144
scalar geant_cost_network.node[22].core_layer 	repo_load[22] 	270144
scalar geant_cost_network.node[22].core_layer 	data[22] 	0
scalar geant_cost_network.node[22].content_store 	p_hit[22] 	0
scalar geant_cost_network.node[22].content_store 	hits[22] 	0
scalar geant_cost_network.node[22].content_store 	misses[22] 	270144
scalar geant_cost_network.node[22].content_store 	decision_yes[22] 	0
scalar geant_cost_network.node[22].content_store 	decision_no[22] 	270144
scalar geant_cost_network.node[22].content_store 	decision_ratio[22] 	0
scalar geant_cost_network.node[23].core_layer 	interests[23] 	156836
scalar geant_cost_network.node[23].core_layer 	repo_load[23] 	156836
scalar geant_cost_network.node[23].core_layer 	data[23] 	0
scalar geant_cost_network.node[23].content_store 	p_hit[23] 	0
scalar geant_cost_network.node[23].content_store 	hits[23] 	0
scalar geant_cost_network.node[23].content_store 	misses[23] 	156836
scalar geant_cost_network.node[23].content_store 	decision_yes[23] 	0
scalar geant_cost_network.node[23].content_store 	decision_no[23] 	156836
scalar geant_cost_network.node[23].content_store 	decision_ratio[23] 	0
scalar geant_cost_network.node[24].core_layer 	interests[24] 	154542
scalar geant_cost_network.node[24].core_layer 	repo_load[24] 	154542
scalar geant_cost_network.node[24].core_layer 	data[24] 	0
scalar geant_cost_network.node[24].content_store 	p_hit[24] 	0
scalar geant_cost_network.node[24].content_store 	hits[24] 	0
scalar geant_cost_network.node[24].content_store 	misses[24] 	154542
scalar geant_cost_network.node[24].content_store 	decision_yes[24] 	0
scalar geant_cost_network.node[24].content_store 	decision_no[24] 	154542
scalar geant_cost_network.node[24].content_store 	decision_ratio[24] 	0
scalar geant_cost_network.client[5] 	hdistance[5] 	3.3568044510636
scalar geant_cost_network.client[5] 	downloads[5] 	177935
scalar geant_cost_network.client[5] 	avg_time[5] 	0.009707222977
scalar geant_cost_network.client[5] 	interests_sent[5] 	179996
scalar geant_cost_network.client[9] 	hdistance[9] 	3.5385741832714
scalar geant_cost_network.client[9] 	downloads[9] 	178915
scalar geant_cost_network.client[9] 	avg_time[9] 	0.004013486884
scalar geant_cost_network.client[9] 	interests_sent[9] 	180189
scalar geant_cost_network.client[10] 	hdistance[10] 	4.4353620912101
scalar geant_cost_network.client[10] 	downloads[10] 	178270
scalar geant_cost_network.client[10] 	avg_time[10] 	0.005837931968
scalar geant_cost_network.client[10] 	interests_sent[10] 	179802
scalar geant_cost_network.client[12] 	hdistance[12] 	3.7646353367731
scalar geant_cost_network.client[12] 	downloads[12] 	179275
scalar geant_cost_network.client[12] 	avg_time[12] 	0.004653753985
scalar geant_cost_network.client[12] 	interests_sent[12] 	180381
scalar geant_cost_network.client[20] 	hdistance[20] 	3.5053844394996
scalar geant_cost_network.client[20] 	downloads[20] 	179313
scalar geant_cost_network.client[20] 	avg_time[20] 	0.006112856756
scalar geant_cost_network.client[20] 	interests_sent[20] 	179701
