version 2
run General-91-20140502-10:14:35-13315
attr D fix0.05
attr F nrr
attr R lru
attr a 1
attr configname General
attr csize 1e3
attr ctlg 1e5
attr datetime 20140502-10:14:35
attr experiment General
attr inifile omnetpp.ini
attr iterationvars "$net=three_caches_scenario_3_links, $rep=1, $priceratiovalue=5, $weights=0.333_0.333_0.334, $a=1, $ctlg=1e5, $F=nrr, $ttl=1000, $D=fix0.05, $xi=1, $R=lru, $csize=1e3"
attr iterationvars2 "$net=three_caches_scenario_3_links, $rep=1, $priceratiovalue=5, $weights=0.333_0.333_0.334, $a=1, $ctlg=1e5, $F=nrr, $ttl=1000, $D=fix0.05, $xi=1, $R=lru, $csize=1e3, $repetition=0"
attr measurement "$net=three_caches_scenario_3_links, $rep=1, $priceratiovalue=5, $weights=0.333_0.333_0.334, $a=1, $ctlg=1e5, $F=nrr, $ttl=1000, $D=fix0.05, $xi=1, $R=lru, $csize=1e3"
attr net three_caches_scenario_3_links
attr network networks.${net=three_caches_scenario_3_links}_network
attr priceratiovalue 5
attr processid 13315
attr rep 1
attr repetition 0
attr replication #0
attr resultdir results
attr runnumber 91
attr seedset 1
attr ttl 1000
attr weights 0.333_0.333_0.334
attr xi 1

scalar . 	a 	1
scalar . 	csize 	1e3
scalar . 	ctlg 	1e5
scalar . 	priceratiovalue 	5
scalar . 	rep 	1
scalar . 	ttl 	1000
scalar . 	xi 	1
scalar three_caches_scenario_3_links_network.content_distribution 	repo-0 	4
scalar three_caches_scenario_3_links_network.content_distribution 	repo-1 	5
scalar three_caches_scenario_3_links_network.content_distribution 	repo-2 	6
scalar three_caches_scenario_3_links_network.content_distribution 	client-0 	0
scalar three_caches_scenario_3_links_network.content_distribution 	repo-0_card 	33352
scalar three_caches_scenario_3_links_network.content_distribution 	repo-1_card 	33263
scalar three_caches_scenario_3_links_network.content_distribution 	repo-2_card 	33385
scalar three_caches_scenario_3_links_network.statistics 	p_hit 	0.27107111255474
scalar three_caches_scenario_3_links_network.statistics 	interests 	51017.714285714
scalar three_caches_scenario_3_links_network.statistics 	data 	25309.428571429
scalar three_caches_scenario_3_links_network.statistics 	hdistance 	1.2725747118772
scalar three_caches_scenario_3_links_network.statistics 	avg_time 	0
scalar three_caches_scenario_3_links_network.statistics 	downloads 	179958
scalar three_caches_scenario_3_links_network.statistics 	total_cost 	156076
scalar three_caches_scenario_3_links_network.statistics 	total_replicas 	100000
scalar three_caches_scenario_3_links_network.statistics 	interests_sent 	179958
scalar three_caches_scenario_3_links_network.node[0].core_layer 	interests[0] 	179958
scalar three_caches_scenario_3_links_network.node[0].core_layer 	data[0] 	94014
scalar three_caches_scenario_3_links_network.node[0].core_layer 	repo_int[0] 	83152
scalar three_caches_scenario_3_links_network.node[0].content_store 	p_hit[0] 	0.47757810155703
scalar three_caches_scenario_3_links_network.node[0].content_store 	hits[0] 	85944
scalar three_caches_scenario_3_links_network.node[0].content_store 	misses[0] 	94014
scalar three_caches_scenario_3_links_network.node[0].content_store 	decision_yes[0] 	4821
scalar three_caches_scenario_3_links_network.node[0].content_store 	decision_no[0] 	89193
scalar three_caches_scenario_3_links_network.node[1].core_layer 	interests[1] 	31308
scalar three_caches_scenario_3_links_network.node[1].core_layer 	data[1] 	31308
scalar three_caches_scenario_3_links_network.node[1].content_store 	p_hit[1] 	0
scalar three_caches_scenario_3_links_network.node[1].content_store 	hits[1] 	0
scalar three_caches_scenario_3_links_network.node[1].content_store 	misses[1] 	31308
scalar three_caches_scenario_3_links_network.node[1].content_store 	decision_yes[1] 	0
scalar three_caches_scenario_3_links_network.node[1].content_store 	decision_no[1] 	31308
scalar three_caches_scenario_3_links_network.node[2].core_layer 	interests[2] 	30928
scalar three_caches_scenario_3_links_network.node[2].core_layer 	data[2] 	25786
scalar three_caches_scenario_3_links_network.node[2].content_store 	p_hit[2] 	0.1662571132954
scalar three_caches_scenario_3_links_network.node[2].content_store 	hits[2] 	5142
scalar three_caches_scenario_3_links_network.node[2].content_store 	misses[2] 	25786
scalar three_caches_scenario_3_links_network.node[2].content_store 	decision_yes[2] 	1263
scalar three_caches_scenario_3_links_network.node[2].content_store 	decision_no[2] 	24523
scalar three_caches_scenario_3_links_network.node[3].core_layer 	interests[3] 	31778
scalar three_caches_scenario_3_links_network.node[3].core_layer 	data[3] 	26058
scalar three_caches_scenario_3_links_network.node[3].content_store 	p_hit[3] 	0.17999874126754
scalar three_caches_scenario_3_links_network.node[3].content_store 	hits[3] 	5720
scalar three_caches_scenario_3_links_network.node[3].content_store 	misses[3] 	26058
scalar three_caches_scenario_3_links_network.node[3].content_store 	decision_yes[3] 	1299
scalar three_caches_scenario_3_links_network.node[3].content_store 	decision_no[3] 	24759
scalar three_caches_scenario_3_links_network.node[4].core_layer 	interests[4] 	31308
scalar three_caches_scenario_3_links_network.node[4].core_layer 	repo_load[4] 	31308
scalar three_caches_scenario_3_links_network.node[4].core_layer 	data[4] 	0
scalar three_caches_scenario_3_links_network.node[4].content_store 	p_hit[4] 	0
scalar three_caches_scenario_3_links_network.node[4].content_store 	hits[4] 	0
scalar three_caches_scenario_3_links_network.node[4].content_store 	misses[4] 	31308
scalar three_caches_scenario_3_links_network.node[4].content_store 	decision_yes[4] 	0
scalar three_caches_scenario_3_links_network.node[4].content_store 	decision_no[4] 	31308
scalar three_caches_scenario_3_links_network.node[5].core_layer 	interests[5] 	25786
scalar three_caches_scenario_3_links_network.node[5].core_layer 	repo_load[5] 	25786
scalar three_caches_scenario_3_links_network.node[5].core_layer 	data[5] 	0
scalar three_caches_scenario_3_links_network.node[5].content_store 	p_hit[5] 	0
scalar three_caches_scenario_3_links_network.node[5].content_store 	hits[5] 	0
scalar three_caches_scenario_3_links_network.node[5].content_store 	misses[5] 	25786
scalar three_caches_scenario_3_links_network.node[5].content_store 	decision_yes[5] 	0
scalar three_caches_scenario_3_links_network.node[5].content_store 	decision_no[5] 	25786
scalar three_caches_scenario_3_links_network.node[6].core_layer 	interests[6] 	26058
scalar three_caches_scenario_3_links_network.node[6].core_layer 	repo_load[6] 	26058
scalar three_caches_scenario_3_links_network.node[6].core_layer 	data[6] 	0
scalar three_caches_scenario_3_links_network.node[6].content_store 	p_hit[6] 	0
scalar three_caches_scenario_3_links_network.node[6].content_store 	hits[6] 	0
scalar three_caches_scenario_3_links_network.node[6].content_store 	misses[6] 	26058
scalar three_caches_scenario_3_links_network.node[6].content_store 	decision_yes[6] 	0
scalar three_caches_scenario_3_links_network.node[6].content_store 	decision_no[6] 	26058
scalar three_caches_scenario_3_links_network.client[0] 	hdistance[0] 	1.2725747118772
scalar three_caches_scenario_3_links_network.client[0] 	downloads[0] 	179958
scalar three_caches_scenario_3_links_network.client[0] 	avg_time[0] 	0
scalar three_caches_scenario_3_links_network.client[0] 	interests_sent[0] 	179958
