version 2
run General-667-20140502-14:13:57-17034
attr D fix0.05
attr F nrr
attr R lru
attr a 1
attr configname General
attr csize 1e3
attr ctlg 1e5
attr datetime 20140502-14:13:57
attr experiment General
attr inifile omnetpp.ini
attr iterationvars "$net=three_caches_scenario_3_links, $rep=5, $priceratiovalue=5, $weights=0.333_0.333_0.334, $a=1, $ctlg=1e5, $F=nrr, $ttl=1000, $D=fix0.05, $xi=1, $R=lru, $csize=1e3"
attr iterationvars2 "$net=three_caches_scenario_3_links, $rep=5, $priceratiovalue=5, $weights=0.333_0.333_0.334, $a=1, $ctlg=1e5, $F=nrr, $ttl=1000, $D=fix0.05, $xi=1, $R=lru, $csize=1e3, $repetition=0"
attr measurement "$net=three_caches_scenario_3_links, $rep=5, $priceratiovalue=5, $weights=0.333_0.333_0.334, $a=1, $ctlg=1e5, $F=nrr, $ttl=1000, $D=fix0.05, $xi=1, $R=lru, $csize=1e3"
attr net three_caches_scenario_3_links
attr network networks.${net=three_caches_scenario_3_links}_network
attr priceratiovalue 5
attr processid 17034
attr rep 5
attr repetition 0
attr replication #0
attr resultdir results
attr runnumber 667
attr seedset 5
attr ttl 1000
attr weights 0.333_0.333_0.334
attr xi 1

scalar . 	a 	1
scalar . 	csize 	1e3
scalar . 	ctlg 	1e5
scalar . 	priceratiovalue 	5
scalar . 	rep 	5
scalar . 	ttl 	1000
scalar . 	xi 	1
scalar three_caches_scenario_3_links_network.content_distribution 	repo-0 	4
scalar three_caches_scenario_3_links_network.content_distribution 	repo-1 	5
scalar three_caches_scenario_3_links_network.content_distribution 	repo-2 	6
scalar three_caches_scenario_3_links_network.content_distribution 	client-0 	0
scalar three_caches_scenario_3_links_network.content_distribution 	repo-0_card 	33274
scalar three_caches_scenario_3_links_network.content_distribution 	repo-1_card 	33323
scalar three_caches_scenario_3_links_network.content_distribution 	repo-2_card 	33403
scalar three_caches_scenario_3_links_network.statistics 	p_hit 	0.26876334875857
scalar three_caches_scenario_3_links_network.statistics 	interests 	51369.142857143
scalar three_caches_scenario_3_links_network.statistics 	data 	25545.285714286
scalar three_caches_scenario_3_links_network.statistics 	hdistance 	1.2811077243081
scalar three_caches_scenario_3_links_network.statistics 	avg_time 	0
scalar three_caches_scenario_3_links_network.statistics 	downloads 	180767
scalar three_caches_scenario_3_links_network.statistics 	total_cost 	158401
scalar three_caches_scenario_3_links_network.statistics 	total_replicas 	100000
scalar three_caches_scenario_3_links_network.statistics 	interests_sent 	180767
scalar three_caches_scenario_3_links_network.node[0].core_layer 	interests[0] 	180767
scalar three_caches_scenario_3_links_network.node[0].core_layer 	data[0] 	94693
scalar three_caches_scenario_3_links_network.node[0].core_layer 	repo_int[0] 	84124
scalar three_caches_scenario_3_links_network.node[0].content_store 	p_hit[0] 	0.47615991856921
scalar three_caches_scenario_3_links_network.node[0].content_store 	hits[0] 	86074
scalar three_caches_scenario_3_links_network.node[0].content_store 	misses[0] 	94693
scalar three_caches_scenario_3_links_network.node[0].content_store 	decision_yes[0] 	4846
scalar three_caches_scenario_3_links_network.node[0].content_store 	decision_no[0] 	89847
scalar three_caches_scenario_3_links_network.node[1].core_layer 	interests[1] 	31359
scalar three_caches_scenario_3_links_network.node[1].core_layer 	data[1] 	31359
scalar three_caches_scenario_3_links_network.node[1].content_store 	p_hit[1] 	0
scalar three_caches_scenario_3_links_network.node[1].content_store 	hits[1] 	0
scalar three_caches_scenario_3_links_network.node[1].content_store 	misses[1] 	31359
scalar three_caches_scenario_3_links_network.node[1].content_store 	decision_yes[1] 	0
scalar three_caches_scenario_3_links_network.node[1].content_store 	decision_no[1] 	31359
scalar three_caches_scenario_3_links_network.node[2].core_layer 	interests[2] 	31742
scalar three_caches_scenario_3_links_network.node[2].core_layer 	data[2] 	26356
scalar three_caches_scenario_3_links_network.node[2].content_store 	p_hit[2] 	0.16968054942978
scalar three_caches_scenario_3_links_network.node[2].content_store 	hits[2] 	5386
scalar three_caches_scenario_3_links_network.node[2].content_store 	misses[2] 	26356
scalar three_caches_scenario_3_links_network.node[2].content_store 	decision_yes[2] 	1348
scalar three_caches_scenario_3_links_network.node[2].content_store 	decision_no[2] 	25008
scalar three_caches_scenario_3_links_network.node[3].core_layer 	interests[3] 	31592
scalar three_caches_scenario_3_links_network.node[3].core_layer 	data[3] 	26409
scalar three_caches_scenario_3_links_network.node[3].content_store 	p_hit[3] 	0.16406052165105
scalar three_caches_scenario_3_links_network.node[3].content_store 	hits[3] 	5183
scalar three_caches_scenario_3_links_network.node[3].content_store 	misses[3] 	26409
scalar three_caches_scenario_3_links_network.node[3].content_store 	decision_yes[3] 	1278
scalar three_caches_scenario_3_links_network.node[3].content_store 	decision_no[3] 	25131
scalar three_caches_scenario_3_links_network.node[4].core_layer 	interests[4] 	31359
scalar three_caches_scenario_3_links_network.node[4].core_layer 	repo_load[4] 	31359
scalar three_caches_scenario_3_links_network.node[4].core_layer 	data[4] 	0
scalar three_caches_scenario_3_links_network.node[4].content_store 	p_hit[4] 	0
scalar three_caches_scenario_3_links_network.node[4].content_store 	hits[4] 	0
scalar three_caches_scenario_3_links_network.node[4].content_store 	misses[4] 	31359
scalar three_caches_scenario_3_links_network.node[4].content_store 	decision_yes[4] 	0
scalar three_caches_scenario_3_links_network.node[4].content_store 	decision_no[4] 	31359
scalar three_caches_scenario_3_links_network.node[5].core_layer 	interests[5] 	26356
scalar three_caches_scenario_3_links_network.node[5].core_layer 	repo_load[5] 	26356
scalar three_caches_scenario_3_links_network.node[5].core_layer 	data[5] 	0
scalar three_caches_scenario_3_links_network.node[5].content_store 	p_hit[5] 	0
scalar three_caches_scenario_3_links_network.node[5].content_store 	hits[5] 	0
scalar three_caches_scenario_3_links_network.node[5].content_store 	misses[5] 	26356
scalar three_caches_scenario_3_links_network.node[5].content_store 	decision_yes[5] 	0
scalar three_caches_scenario_3_links_network.node[5].content_store 	decision_no[5] 	26356
scalar three_caches_scenario_3_links_network.node[6].core_layer 	interests[6] 	26409
scalar three_caches_scenario_3_links_network.node[6].core_layer 	repo_load[6] 	26409
scalar three_caches_scenario_3_links_network.node[6].core_layer 	data[6] 	0
scalar three_caches_scenario_3_links_network.node[6].content_store 	p_hit[6] 	0
scalar three_caches_scenario_3_links_network.node[6].content_store 	hits[6] 	0
scalar three_caches_scenario_3_links_network.node[6].content_store 	misses[6] 	26409
scalar three_caches_scenario_3_links_network.node[6].content_store 	decision_yes[6] 	0
scalar three_caches_scenario_3_links_network.node[6].content_store 	decision_no[6] 	26409
scalar three_caches_scenario_3_links_network.client[0] 	hdistance[0] 	1.2811077243081
scalar three_caches_scenario_3_links_network.client[0] 	downloads[0] 	180767
scalar three_caches_scenario_3_links_network.client[0] 	avg_time[0] 	0
scalar three_caches_scenario_3_links_network.client[0] 	interests_sent[0] 	180767
