version 2
run General-578-20140425-16:06:07-13039
attr D costprob0.2
attr F nrr
attr R lru
attr a 0
attr configname General
attr csize 30
attr ctlg 10^3
attr datetime 20140425-16:06:07
attr experiment General
attr inifile omnetpp.ini
attr iterationvars "$net=one_cache_scenario, $rep=5, $priceratiovalue=9, $a=0, $ctlg=10^3, $F=nrr, $ttl=1000, $D=costprob0.2, $R=lru, $csize=30"
attr iterationvars2 "$net=one_cache_scenario, $rep=5, $priceratiovalue=9, $a=0, $ctlg=10^3, $F=nrr, $ttl=1000, $D=costprob0.2, $R=lru, $csize=30, $repetition=0"
attr measurement "$net=one_cache_scenario, $rep=5, $priceratiovalue=9, $a=0, $ctlg=10^3, $F=nrr, $ttl=1000, $D=costprob0.2, $R=lru, $csize=30"
attr net one_cache_scenario
attr network networks.${net=one_cache_scenario}_network
attr priceratiovalue 9
attr processid 13039
attr rep 5
attr repetition 0
attr replication #0
attr resultdir results
attr runnumber 578
attr seedset 5
attr ttl 1000

scalar . 	a 	0
scalar . 	csize 	30
scalar . 	priceratiovalue 	9
scalar . 	rep 	5
scalar . 	ttl 	1000
scalar one_cache_scenario_network.content_distribution 	repo-0 	3
scalar one_cache_scenario_network.content_distribution 	repo-1 	4
scalar one_cache_scenario_network.content_distribution 	client-0 	0
scalar one_cache_scenario_network.content_distribution 	repo-0_card 	519
scalar one_cache_scenario_network.content_distribution 	repo-1_card 	481
scalar one_cache_scenario_network.statistics 	p_hit 	0.0099482044979908
scalar one_cache_scenario_network.statistics 	interests 	106109.6
scalar one_cache_scenario_network.statistics 	data 	70036
scalar one_cache_scenario_network.statistics 	hdistance 	1.941475206245
scalar one_cache_scenario_network.statistics 	avg_time 	0
scalar one_cache_scenario_network.statistics 	downloads 	180368
scalar one_cache_scenario_network.statistics 	total_cost 	83061
scalar one_cache_scenario_network.statistics 	interests_sent 	180368
scalar one_cache_scenario_network.node[0].core_layer 	interests[0] 	180368
scalar one_cache_scenario_network.node[0].core_layer 	data[0] 	175090
scalar one_cache_scenario_network.node[0].core_layer 	repo_int[0] 	175090
scalar one_cache_scenario_network.node[0].content_store 	p_hit[0] 	0.029262396877495
scalar one_cache_scenario_network.node[0].content_store 	hits[0] 	5278
scalar one_cache_scenario_network.node[0].content_store 	misses[0] 	175090
scalar one_cache_scenario_network.node[0].content_store 	decision_yes[0] 	16750
scalar one_cache_scenario_network.node[0].content_store 	decision_no[0] 	158340
scalar one_cache_scenario_network.node[1].core_layer 	interests[1] 	93148
scalar one_cache_scenario_network.node[1].core_layer 	data[1] 	93148
scalar one_cache_scenario_network.node[1].content_store 	p_hit[1] 	0
scalar one_cache_scenario_network.node[1].content_store 	hits[1] 	0
scalar one_cache_scenario_network.node[1].content_store 	misses[1] 	93148
scalar one_cache_scenario_network.node[1].content_store 	decision_yes[1] 	0
scalar one_cache_scenario_network.node[1].content_store 	decision_no[1] 	93148
scalar one_cache_scenario_network.node[2].core_layer 	interests[2] 	81942
scalar one_cache_scenario_network.node[2].core_layer 	data[2] 	81942
scalar one_cache_scenario_network.node[2].content_store 	p_hit[2] 	0
scalar one_cache_scenario_network.node[2].content_store 	hits[2] 	0
scalar one_cache_scenario_network.node[2].content_store 	misses[2] 	81942
scalar one_cache_scenario_network.node[2].content_store 	decision_yes[2] 	0
scalar one_cache_scenario_network.node[2].content_store 	decision_no[2] 	81942
scalar one_cache_scenario_network.node[3].core_layer 	interests[3] 	93148
scalar one_cache_scenario_network.node[3].core_layer 	repo_load[3] 	93148
scalar one_cache_scenario_network.node[3].core_layer 	data[3] 	0
scalar one_cache_scenario_network.node[3].content_store 	p_hit[3] 	0
scalar one_cache_scenario_network.node[3].content_store 	hits[3] 	0
scalar one_cache_scenario_network.node[3].content_store 	misses[3] 	93148
scalar one_cache_scenario_network.node[3].content_store 	decision_yes[3] 	0
scalar one_cache_scenario_network.node[3].content_store 	decision_no[3] 	93148
scalar one_cache_scenario_network.node[4].core_layer 	interests[4] 	81942
scalar one_cache_scenario_network.node[4].core_layer 	repo_load[4] 	81942
scalar one_cache_scenario_network.node[4].core_layer 	data[4] 	0
scalar one_cache_scenario_network.node[4].content_store 	p_hit[4] 	0
scalar one_cache_scenario_network.node[4].content_store 	hits[4] 	0
scalar one_cache_scenario_network.node[4].content_store 	misses[4] 	81942
scalar one_cache_scenario_network.node[4].content_store 	decision_yes[4] 	0
scalar one_cache_scenario_network.node[4].content_store 	decision_no[4] 	81942
scalar one_cache_scenario_network.client[0] 	hdistance[0] 	1.941475206245
scalar one_cache_scenario_network.client[0] 	downloads[0] 	180368
scalar one_cache_scenario_network.client[0] 	avg_time[0] 	0
scalar one_cache_scenario_network.client[0] 	interests_sent[0] 	180368
