version 2
run General-1-20140502-15:51:06-18114
attr D costprob0.01
attr F nrr
attr R lru
attr a 1
attr configname General
attr csize 1e3
attr ctlg 1e5
attr datetime 20140502-15:51:06
attr experiment General
attr inifile omnetpp.ini
attr iterationvars "$net=four_caches_scenario_3_links, $rep=1, $priceratiovalue=10, $weights=0.7_0.15_0.15, $a=1, $ctlg=1e5, $F=nrr, $ttl=1000, $D=costprob0.01, $xi=1, $R=lru, $csize=1e3"
attr iterationvars2 "$net=four_caches_scenario_3_links, $rep=1, $priceratiovalue=10, $weights=0.7_0.15_0.15, $a=1, $ctlg=1e5, $F=nrr, $ttl=1000, $D=costprob0.01, $xi=1, $R=lru, $csize=1e3, $repetition=0"
attr measurement "$net=four_caches_scenario_3_links, $rep=1, $priceratiovalue=10, $weights=0.7_0.15_0.15, $a=1, $ctlg=1e5, $F=nrr, $ttl=1000, $D=costprob0.01, $xi=1, $R=lru, $csize=1e3"
attr net four_caches_scenario_3_links
attr network networks.${net=four_caches_scenario_3_links}_network
attr priceratiovalue 10
attr processid 18114
attr rep 1
attr repetition 0
attr replication #0
attr resultdir results
attr runnumber 1
attr seedset 1
attr ttl 1000
attr weights 0.7_0.15_0.15
attr xi 1

scalar . 	a 	1
scalar . 	csize 	1e3
scalar . 	ctlg 	1e5
scalar . 	priceratiovalue 	10
scalar . 	rep 	1
scalar . 	ttl 	1000
scalar . 	xi 	1
scalar four_caches_scenario_3_links_network.content_distribution 	repo-0 	4
scalar four_caches_scenario_3_links_network.content_distribution 	repo-1 	5
scalar four_caches_scenario_3_links_network.content_distribution 	repo-2 	6
scalar four_caches_scenario_3_links_network.content_distribution 	client-0 	0
scalar four_caches_scenario_3_links_network.content_distribution 	repo-0_card 	70018
scalar four_caches_scenario_3_links_network.content_distribution 	repo-1_card 	15023
scalar four_caches_scenario_3_links_network.content_distribution 	repo-2_card 	14959
scalar four_caches_scenario_3_links_network.statistics 	p_hit 	0.058573946872531
scalar four_caches_scenario_3_links_network.statistics 	interests 	70504.285714286
scalar four_caches_scenario_3_links_network.statistics 	data 	44821.857142857
scalar four_caches_scenario_3_links_network.statistics 	hdistance 	2.5844351613388
scalar four_caches_scenario_3_links_network.statistics 	avg_time 	0
scalar four_caches_scenario_3_links_network.statistics 	downloads 	179777
scalar four_caches_scenario_3_links_network.statistics 	total_cost 	101113
scalar four_caches_scenario_3_links_network.statistics 	total_replicas 	100000
scalar four_caches_scenario_3_links_network.statistics 	interests_sent 	179777
scalar four_caches_scenario_3_links_network.node[0].core_layer 	interests[0] 	179777
scalar four_caches_scenario_3_links_network.node[0].core_layer 	data[0] 	162884
scalar four_caches_scenario_3_links_network.node[0].core_layer 	repo_int[0] 	150869
scalar four_caches_scenario_3_links_network.node[0].content_store 	p_hit[0] 	0.093966413946167
scalar four_caches_scenario_3_links_network.node[0].content_store 	hits[0] 	16893
scalar four_caches_scenario_3_links_network.node[0].content_store 	misses[0] 	162884
scalar four_caches_scenario_3_links_network.node[0].content_store 	decision_yes[0] 	602
scalar four_caches_scenario_3_links_network.node[0].content_store 	decision_no[0] 	162282
scalar four_caches_scenario_3_links_network.node[1].core_layer 	interests[1] 	132259
scalar four_caches_scenario_3_links_network.node[1].core_layer 	data[1] 	132259
scalar four_caches_scenario_3_links_network.node[1].content_store 	p_hit[1] 	0
scalar four_caches_scenario_3_links_network.node[1].content_store 	hits[1] 	0
scalar four_caches_scenario_3_links_network.node[1].content_store 	misses[1] 	132259
scalar four_caches_scenario_3_links_network.node[1].content_store 	decision_yes[1] 	0
scalar four_caches_scenario_3_links_network.node[1].content_store 	decision_no[1] 	132259
scalar four_caches_scenario_3_links_network.node[2].core_layer 	interests[2] 	15249
scalar four_caches_scenario_3_links_network.node[2].core_layer 	data[2] 	9443
scalar four_caches_scenario_3_links_network.node[2].content_store 	p_hit[2] 	0.38074627844449
scalar four_caches_scenario_3_links_network.node[2].content_store 	hits[2] 	5806
scalar four_caches_scenario_3_links_network.node[2].content_store 	misses[2] 	9443
scalar four_caches_scenario_3_links_network.node[2].content_store 	decision_yes[2] 	56
scalar four_caches_scenario_3_links_network.node[2].content_store 	decision_no[2] 	9387
scalar four_caches_scenario_3_links_network.node[3].core_layer 	interests[3] 	15376
scalar four_caches_scenario_3_links_network.node[3].core_layer 	data[3] 	9167
scalar four_caches_scenario_3_links_network.node[3].content_store 	p_hit[3] 	0.40381113423517
scalar four_caches_scenario_3_links_network.node[3].content_store 	hits[3] 	6209
scalar four_caches_scenario_3_links_network.node[3].content_store 	misses[3] 	9167
scalar four_caches_scenario_3_links_network.node[3].content_store 	decision_yes[3] 	541
scalar four_caches_scenario_3_links_network.node[3].content_store 	decision_no[3] 	8626
scalar four_caches_scenario_3_links_network.node[4].core_layer 	interests[4] 	132259
scalar four_caches_scenario_3_links_network.node[4].core_layer 	repo_load[4] 	132259
scalar four_caches_scenario_3_links_network.node[4].core_layer 	data[4] 	0
scalar four_caches_scenario_3_links_network.node[4].content_store 	p_hit[4] 	0
scalar four_caches_scenario_3_links_network.node[4].content_store 	hits[4] 	0
scalar four_caches_scenario_3_links_network.node[4].content_store 	misses[4] 	132259
scalar four_caches_scenario_3_links_network.node[4].content_store 	decision_yes[4] 	0
scalar four_caches_scenario_3_links_network.node[4].content_store 	decision_no[4] 	132259
scalar four_caches_scenario_3_links_network.node[5].core_layer 	interests[5] 	9443
scalar four_caches_scenario_3_links_network.node[5].core_layer 	repo_load[5] 	9443
scalar four_caches_scenario_3_links_network.node[5].core_layer 	data[5] 	0
scalar four_caches_scenario_3_links_network.node[5].content_store 	p_hit[5] 	0
scalar four_caches_scenario_3_links_network.node[5].content_store 	hits[5] 	0
scalar four_caches_scenario_3_links_network.node[5].content_store 	misses[5] 	9443
scalar four_caches_scenario_3_links_network.node[5].content_store 	decision_yes[5] 	0
scalar four_caches_scenario_3_links_network.node[5].content_store 	decision_no[5] 	9443
scalar four_caches_scenario_3_links_network.node[6].core_layer 	interests[6] 	9167
scalar four_caches_scenario_3_links_network.node[6].core_layer 	repo_load[6] 	9167
scalar four_caches_scenario_3_links_network.node[6].core_layer 	data[6] 	0
scalar four_caches_scenario_3_links_network.node[6].content_store 	p_hit[6] 	0
scalar four_caches_scenario_3_links_network.node[6].content_store 	hits[6] 	0
scalar four_caches_scenario_3_links_network.node[6].content_store 	misses[6] 	9167
scalar four_caches_scenario_3_links_network.node[6].content_store 	decision_yes[6] 	0
scalar four_caches_scenario_3_links_network.node[6].content_store 	decision_no[6] 	9167
scalar four_caches_scenario_3_links_network.client[0] 	hdistance[0] 	2.5844351613388
scalar four_caches_scenario_3_links_network.client[0] 	downloads[0] 	179777
scalar four_caches_scenario_3_links_network.client[0] 	avg_time[0] 	0
scalar four_caches_scenario_3_links_network.client[0] 	interests_sent[0] 	179777
