version 2
run General-232-20140418-15:26:17-1834
attr D costprob0.1
attr F nrr
attr R lru
attr a 1
attr configname General
attr csize 10
attr ctlg 10^6
attr datetime 20140418-15:26:17
attr experiment General
attr inifile omnetpp.ini
attr iterationvars "$net=simple_scenario, $rep=1, $priceratiovalue=10, $a=1, $ctlg=10^6, $F=nrr, $ttl=1000, $D=costprob0.1, $R=lru, $csize=10"
attr iterationvars2 "$net=simple_scenario, $rep=1, $priceratiovalue=10, $a=1, $ctlg=10^6, $F=nrr, $ttl=1000, $D=costprob0.1, $R=lru, $csize=10, $repetition=0"
attr measurement "$net=simple_scenario, $rep=1, $priceratiovalue=10, $a=1, $ctlg=10^6, $F=nrr, $ttl=1000, $D=costprob0.1, $R=lru, $csize=10"
attr net simple_scenario
attr network networks.${net=simple_scenario}_network
attr priceratiovalue 10
attr processid 1834
attr rep 1
attr repetition 0
attr replication #0
attr resultdir results
attr runnumber 232
attr seedset 1
attr ttl 1000

scalar . 	a 	1
scalar . 	csize 	10
scalar . 	priceratiovalue 	10
scalar . 	rep 	1
scalar . 	ttl 	1000
scalar simple_scenario_network.content_distribution 	repo-0 	3
scalar simple_scenario_network.content_distribution 	repo-1 	4
scalar simple_scenario_network.content_distribution 	client-0 	0
scalar simple_scenario_network.content_distribution 	repo-0_card 	500011
scalar simple_scenario_network.content_distribution 	repo-1_card 	499989
scalar simple_scenario_network.statistics 	p_hit 	0.072633085844616
scalar simple_scenario_network.statistics 	interests 	98913.6
scalar simple_scenario_network.statistics 	data 	62957.4
scalar simple_scenario_network.statistics 	hdistance 	2.5511372169473
scalar simple_scenario_network.statistics 	avg_time 	0.001998472723
scalar simple_scenario_network.statistics 	downloads 	179781
scalar simple_scenario_network.statistics 	total_cost 	73405
scalar simple_scenario_network.node[0].core_layer 	interests[0] 	179781
scalar simple_scenario_network.node[0].core_layer 	data[0] 	170928
scalar simple_scenario_network.node[0].core_layer 	repo_int[0] 	143859
scalar simple_scenario_network.node[0].content_store 	p_hit[0] 	0.049243245949238
scalar simple_scenario_network.node[0].content_store 	hits[0] 	8853
scalar simple_scenario_network.node[0].content_store 	misses[0] 	170928
scalar simple_scenario_network.node[1].core_layer 	interests[1] 	80658
scalar simple_scenario_network.node[1].core_layer 	data[1] 	70125
scalar simple_scenario_network.node[1].content_store 	p_hit[1] 	0.13058841032508
scalar simple_scenario_network.node[1].content_store 	hits[1] 	10533
scalar simple_scenario_network.node[1].content_store 	misses[1] 	70125
scalar simple_scenario_network.node[2].core_layer 	interests[2] 	90270
scalar simple_scenario_network.node[2].core_layer 	data[2] 	73734
scalar simple_scenario_network.node[2].content_store 	p_hit[2] 	0.18318378198737
scalar simple_scenario_network.node[2].content_store 	hits[2] 	16536
scalar simple_scenario_network.node[2].content_store 	misses[2] 	73734
scalar simple_scenario_network.node[3].core_layer 	interests[3] 	70125
scalar simple_scenario_network.node[3].core_layer 	repo_load[3] 	70125
scalar simple_scenario_network.node[3].core_layer 	data[3] 	0
scalar simple_scenario_network.node[3].content_store 	p_hit[3] 	0
scalar simple_scenario_network.node[3].content_store 	hits[3] 	0
scalar simple_scenario_network.node[3].content_store 	misses[3] 	70125
scalar simple_scenario_network.node[4].core_layer 	interests[4] 	73734
scalar simple_scenario_network.node[4].core_layer 	repo_load[4] 	73734
scalar simple_scenario_network.node[4].core_layer 	data[4] 	0
scalar simple_scenario_network.node[4].content_store 	p_hit[4] 	0
scalar simple_scenario_network.node[4].content_store 	hits[4] 	0
scalar simple_scenario_network.node[4].content_store 	misses[4] 	73734
scalar simple_scenario_network.client[0] 	hdistance[0] 	2.5511372169473
scalar simple_scenario_network.client[0] 	downloads[0] 	179781
scalar simple_scenario_network.client[0] 	avg_time[0] 	0.001998472723
