version 2
run General-6-20140429-10:17:14-16704
attr D costprob0.02
attr F nrr
attr R lru
attr a 0
attr configname General
attr csize 1000
attr ctlg 10^5
attr datetime 20140429-10:17:14
attr experiment General
attr inifile omnetpp.ini
attr iterationvars "$net=one_cache_scenario_with_free_link, $rep=3, $priceratiovalue=1, $a=0, $ctlg=10^5, $F=nrr, $ttl=1000, $D=costprob0.02, $xi=1, $R=lru, $csize=1000"
attr iterationvars2 "$net=one_cache_scenario_with_free_link, $rep=3, $priceratiovalue=1, $a=0, $ctlg=10^5, $F=nrr, $ttl=1000, $D=costprob0.02, $xi=1, $R=lru, $csize=1000, $repetition=0"
attr measurement "$net=one_cache_scenario_with_free_link, $rep=3, $priceratiovalue=1, $a=0, $ctlg=10^5, $F=nrr, $ttl=1000, $D=costprob0.02, $xi=1, $R=lru, $csize=1000"
attr net one_cache_scenario_with_free_link
attr network networks.${net=one_cache_scenario_with_free_link}_network
attr priceratiovalue 1
attr processid 16704
attr rep 3
attr repetition 0
attr replication #0
attr resultdir results
attr runnumber 6
attr seedset 3
attr ttl 1000
attr xi 1

scalar . 	a 	0
scalar . 	csize 	1000
scalar . 	priceratiovalue 	1
scalar . 	rep 	3
scalar . 	ttl 	1000
scalar . 	xi 	1
scalar one_cache_scenario_with_free_link_network.content_distribution 	repo-0 	3
scalar one_cache_scenario_with_free_link_network.content_distribution 	repo-1 	4
scalar one_cache_scenario_with_free_link_network.content_distribution 	client-0 	0
scalar one_cache_scenario_with_free_link_network.content_distribution 	repo-0_card 	50325
scalar one_cache_scenario_with_free_link_network.content_distribution 	repo-1_card 	49675
scalar one_cache_scenario_with_free_link_network.statistics 	p_hit 	0.0034634003582699
scalar one_cache_scenario_with_free_link_network.statistics 	interests 	107293.4
scalar one_cache_scenario_with_free_link_network.statistics 	data 	71281.2
scalar one_cache_scenario_with_free_link_network.statistics 	hdistance 	1.9793625493583
scalar one_cache_scenario_with_free_link_network.statistics 	avg_time 	0
scalar one_cache_scenario_with_free_link_network.statistics 	downloads 	180061
scalar one_cache_scenario_with_free_link_network.statistics 	total_cost 	87448
scalar one_cache_scenario_with_free_link_network.statistics 	interests_sent 	180061
scalar one_cache_scenario_with_free_link_network.node[0].core_layer 	interests[0] 	180061
scalar one_cache_scenario_with_free_link_network.node[0].core_layer 	data[0] 	178203
scalar one_cache_scenario_with_free_link_network.node[0].core_layer 	repo_int[0] 	178203
scalar one_cache_scenario_with_free_link_network.node[0].content_store 	p_hit[0] 	0.010318725320863
scalar one_cache_scenario_with_free_link_network.node[0].content_store 	hits[0] 	1858
scalar one_cache_scenario_with_free_link_network.node[0].content_store 	misses[0] 	178203
scalar one_cache_scenario_with_free_link_network.node[0].content_store 	decision_yes[0] 	1726
scalar one_cache_scenario_with_free_link_network.node[0].content_store 	decision_no[0] 	176477
scalar one_cache_scenario_with_free_link_network.node[1].core_layer 	interests[1] 	90755
scalar one_cache_scenario_with_free_link_network.node[1].core_layer 	data[1] 	90755
scalar one_cache_scenario_with_free_link_network.node[1].content_store 	p_hit[1] 	0
scalar one_cache_scenario_with_free_link_network.node[1].content_store 	hits[1] 	0
scalar one_cache_scenario_with_free_link_network.node[1].content_store 	misses[1] 	90755
scalar one_cache_scenario_with_free_link_network.node[1].content_store 	decision_yes[1] 	0
scalar one_cache_scenario_with_free_link_network.node[1].content_store 	decision_no[1] 	90755
scalar one_cache_scenario_with_free_link_network.node[2].core_layer 	interests[2] 	87448
scalar one_cache_scenario_with_free_link_network.node[2].core_layer 	data[2] 	87448
scalar one_cache_scenario_with_free_link_network.node[2].content_store 	p_hit[2] 	0
scalar one_cache_scenario_with_free_link_network.node[2].content_store 	hits[2] 	0
scalar one_cache_scenario_with_free_link_network.node[2].content_store 	misses[2] 	87448
scalar one_cache_scenario_with_free_link_network.node[2].content_store 	decision_yes[2] 	0
scalar one_cache_scenario_with_free_link_network.node[2].content_store 	decision_no[2] 	87448
scalar one_cache_scenario_with_free_link_network.node[3].core_layer 	interests[3] 	90755
scalar one_cache_scenario_with_free_link_network.node[3].core_layer 	repo_load[3] 	90755
scalar one_cache_scenario_with_free_link_network.node[3].core_layer 	data[3] 	0
scalar one_cache_scenario_with_free_link_network.node[3].content_store 	p_hit[3] 	0
scalar one_cache_scenario_with_free_link_network.node[3].content_store 	hits[3] 	0
scalar one_cache_scenario_with_free_link_network.node[3].content_store 	misses[3] 	90755
scalar one_cache_scenario_with_free_link_network.node[3].content_store 	decision_yes[3] 	0
scalar one_cache_scenario_with_free_link_network.node[3].content_store 	decision_no[3] 	90755
scalar one_cache_scenario_with_free_link_network.node[4].core_layer 	interests[4] 	87448
scalar one_cache_scenario_with_free_link_network.node[4].core_layer 	repo_load[4] 	87448
scalar one_cache_scenario_with_free_link_network.node[4].core_layer 	data[4] 	0
scalar one_cache_scenario_with_free_link_network.node[4].content_store 	p_hit[4] 	0
scalar one_cache_scenario_with_free_link_network.node[4].content_store 	hits[4] 	0
scalar one_cache_scenario_with_free_link_network.node[4].content_store 	misses[4] 	87448
scalar one_cache_scenario_with_free_link_network.node[4].content_store 	decision_yes[4] 	0
scalar one_cache_scenario_with_free_link_network.node[4].content_store 	decision_no[4] 	87448
scalar one_cache_scenario_with_free_link_network.client[0] 	hdistance[0] 	1.9793625493583
scalar one_cache_scenario_with_free_link_network.client[0] 	downloads[0] 	180061
scalar one_cache_scenario_with_free_link_network.client[0] 	avg_time[0] 	0
scalar one_cache_scenario_with_free_link_network.client[0] 	interests_sent[0] 	180061
