version 2
run General-3-20140429-10:17:14-16701
attr D costprob0.02
attr F nrr
attr R lru
attr a 0
attr configname General
attr csize 1000
attr ctlg 10^5
attr datetime 20140429-10:17:14
attr experiment General
attr inifile omnetpp.ini
attr iterationvars "$net=one_cache_scenario_with_free_link, $rep=2, $priceratiovalue=1, $a=0, $ctlg=10^5, $F=nrr, $ttl=1000, $D=costprob0.02, $xi=1, $R=lru, $csize=1000"
attr iterationvars2 "$net=one_cache_scenario_with_free_link, $rep=2, $priceratiovalue=1, $a=0, $ctlg=10^5, $F=nrr, $ttl=1000, $D=costprob0.02, $xi=1, $R=lru, $csize=1000, $repetition=0"
attr measurement "$net=one_cache_scenario_with_free_link, $rep=2, $priceratiovalue=1, $a=0, $ctlg=10^5, $F=nrr, $ttl=1000, $D=costprob0.02, $xi=1, $R=lru, $csize=1000"
attr net one_cache_scenario_with_free_link
attr network networks.${net=one_cache_scenario_with_free_link}_network
attr priceratiovalue 1
attr processid 16701
attr rep 2
attr repetition 0
attr replication #0
attr resultdir results
attr runnumber 3
attr seedset 2
attr ttl 1000
attr xi 1

scalar . 	a 	0
scalar . 	csize 	1000
scalar . 	priceratiovalue 	1
scalar . 	rep 	2
scalar . 	ttl 	1000
scalar . 	xi 	1
scalar one_cache_scenario_with_free_link_network.content_distribution 	repo-0 	3
scalar one_cache_scenario_with_free_link_network.content_distribution 	repo-1 	4
scalar one_cache_scenario_with_free_link_network.content_distribution 	client-0 	0
scalar one_cache_scenario_with_free_link_network.content_distribution 	repo-0_card 	50289
scalar one_cache_scenario_with_free_link_network.content_distribution 	repo-1_card 	49711
scalar one_cache_scenario_with_free_link_network.statistics 	p_hit 	0.0032930763442382
scalar one_cache_scenario_with_free_link_network.statistics 	interests 	107376.8
scalar one_cache_scenario_with_free_link_network.statistics 	data 	71348.8
scalar one_cache_scenario_with_free_link_network.statistics 	hdistance 	1.9803708226935
scalar one_cache_scenario_with_free_link_network.statistics 	avg_time 	0
scalar one_cache_scenario_with_free_link_network.statistics 	downloads 	180140
scalar one_cache_scenario_with_free_link_network.statistics 	total_cost 	87987
scalar one_cache_scenario_with_free_link_network.statistics 	interests_sent 	180140
scalar one_cache_scenario_with_free_link_network.node[0].core_layer 	interests[0] 	180140
scalar one_cache_scenario_with_free_link_network.node[0].core_layer 	data[0] 	178372
scalar one_cache_scenario_with_free_link_network.node[0].core_layer 	repo_int[0] 	178372
scalar one_cache_scenario_with_free_link_network.node[0].content_store 	p_hit[0] 	0.0098145886532697
scalar one_cache_scenario_with_free_link_network.node[0].content_store 	hits[0] 	1768
scalar one_cache_scenario_with_free_link_network.node[0].content_store 	misses[0] 	178372
scalar one_cache_scenario_with_free_link_network.node[0].content_store 	decision_yes[0] 	1795
scalar one_cache_scenario_with_free_link_network.node[0].content_store 	decision_no[0] 	176577
scalar one_cache_scenario_with_free_link_network.node[1].core_layer 	interests[1] 	90385
scalar one_cache_scenario_with_free_link_network.node[1].core_layer 	data[1] 	90385
scalar one_cache_scenario_with_free_link_network.node[1].content_store 	p_hit[1] 	0
scalar one_cache_scenario_with_free_link_network.node[1].content_store 	hits[1] 	0
scalar one_cache_scenario_with_free_link_network.node[1].content_store 	misses[1] 	90385
scalar one_cache_scenario_with_free_link_network.node[1].content_store 	decision_yes[1] 	0
scalar one_cache_scenario_with_free_link_network.node[1].content_store 	decision_no[1] 	90385
scalar one_cache_scenario_with_free_link_network.node[2].core_layer 	interests[2] 	87987
scalar one_cache_scenario_with_free_link_network.node[2].core_layer 	data[2] 	87987
scalar one_cache_scenario_with_free_link_network.node[2].content_store 	p_hit[2] 	0
scalar one_cache_scenario_with_free_link_network.node[2].content_store 	hits[2] 	0
scalar one_cache_scenario_with_free_link_network.node[2].content_store 	misses[2] 	87987
scalar one_cache_scenario_with_free_link_network.node[2].content_store 	decision_yes[2] 	0
scalar one_cache_scenario_with_free_link_network.node[2].content_store 	decision_no[2] 	87987
scalar one_cache_scenario_with_free_link_network.node[3].core_layer 	interests[3] 	90385
scalar one_cache_scenario_with_free_link_network.node[3].core_layer 	repo_load[3] 	90385
scalar one_cache_scenario_with_free_link_network.node[3].core_layer 	data[3] 	0
scalar one_cache_scenario_with_free_link_network.node[3].content_store 	p_hit[3] 	0
scalar one_cache_scenario_with_free_link_network.node[3].content_store 	hits[3] 	0
scalar one_cache_scenario_with_free_link_network.node[3].content_store 	misses[3] 	90385
scalar one_cache_scenario_with_free_link_network.node[3].content_store 	decision_yes[3] 	0
scalar one_cache_scenario_with_free_link_network.node[3].content_store 	decision_no[3] 	90385
scalar one_cache_scenario_with_free_link_network.node[4].core_layer 	interests[4] 	87987
scalar one_cache_scenario_with_free_link_network.node[4].core_layer 	repo_load[4] 	87987
scalar one_cache_scenario_with_free_link_network.node[4].core_layer 	data[4] 	0
scalar one_cache_scenario_with_free_link_network.node[4].content_store 	p_hit[4] 	0
scalar one_cache_scenario_with_free_link_network.node[4].content_store 	hits[4] 	0
scalar one_cache_scenario_with_free_link_network.node[4].content_store 	misses[4] 	87987
scalar one_cache_scenario_with_free_link_network.node[4].content_store 	decision_yes[4] 	0
scalar one_cache_scenario_with_free_link_network.node[4].content_store 	decision_no[4] 	87987
scalar one_cache_scenario_with_free_link_network.client[0] 	hdistance[0] 	1.9803708226935
scalar one_cache_scenario_with_free_link_network.client[0] 	downloads[0] 	180140
scalar one_cache_scenario_with_free_link_network.client[0] 	avg_time[0] 	0
scalar one_cache_scenario_with_free_link_network.client[0] 	interests_sent[0] 	180140
