version 2
run General-13-20140627-18:37:15-15251
attr D lce
attr F spr
attr R lru
attr a 1
attr configname General
attr csize 1e3
attr ctlg 1e5
attr datetime 20140627-18:37:15
attr experiment General
attr inifile omnetpp.ini
attr iterationvars "$net=geant_cost, $rep=19, $priceratiovalue=10, $weights=0.333_0.333_0.334, $lambda=100, $a=1, $ctlg=1e5, $F=spr, $ttl=1000, $D=lce, $xi=1, $R=lru, $csize=1e3, $pricebits=0, $window=60, $variance=0.05, $mytime=1800"
attr iterationvars2 "$net=geant_cost, $rep=19, $priceratiovalue=10, $weights=0.333_0.333_0.334, $lambda=100, $a=1, $ctlg=1e5, $F=spr, $ttl=1000, $D=lce, $xi=1, $R=lru, $csize=1e3, $pricebits=0, $window=60, $variance=0.05, $mytime=1800, $repetition=0"
attr lambda 100
attr measurement "$net=geant_cost, $rep=19, $priceratiovalue=10, $weights=0.333_0.333_0.334, $lambda=100, $a=1, $ctlg=1e5, $F=spr, $ttl=1000, $D=lce, $xi=1, $R=lru, $csize=1e3, $pricebits=0, $window=60, $variance=0.05, $mytime=1800"
attr mytime 1800
attr net geant_cost
attr network "networks.${net=geant_cost, abilene_cost}_network"
attr pricebits 0
attr priceratiovalue 10
attr processid 15251
attr rep 19
attr repetition 0
attr replication #0
attr resultdir results
attr runnumber 13
attr seedset 19
attr ttl 1000
attr variance 0.05
attr weights 0.333_0.333_0.334
attr window 60
attr xi 1

scalar . 	a 	1
scalar . 	csize 	1e3
scalar . 	ctlg 	1e5
scalar . 	lambda 	100
scalar . 	mytime 	1800
scalar . 	pricebits 	0
scalar . 	priceratiovalue 	10
scalar . 	rep 	19
scalar . 	ttl 	1000
scalar . 	variance 	0.05
scalar . 	window 	60
scalar . 	xi 	1
scalar geant_cost_network.content_distribution 	repo-0 	22
scalar geant_cost_network.content_distribution 	repo-1 	23
scalar geant_cost_network.content_distribution 	repo-2 	24
scalar geant_cost_network.content_distribution 	client-0 	20
scalar geant_cost_network.content_distribution 	client-1 	10
scalar geant_cost_network.content_distribution 	client-2 	12
scalar geant_cost_network.content_distribution 	client-3 	9
scalar geant_cost_network.content_distribution 	client-4 	5
scalar geant_cost_network.content_distribution 	repo-0_card 	33368
scalar geant_cost_network.content_distribution 	repo-1_card 	33389
scalar geant_cost_network.content_distribution 	repo-2_card 	33243
scalar geant_cost_network.statistics 	repo_popularity[0] 	0.2704974433948
scalar geant_cost_network.statistics 	repo_popularity[1] 	0.39472808551936
scalar geant_cost_network.statistics 	repo_popularity[2] 	0.33477447108584
scalar geant_cost_network.statistics 	stabilization_time 	36060
scalar geant_cost_network.node[7].face$o[4].channel 	price[7] 	0
scalar geant_cost_network.node[7].face$o[4].channel 	represented_price[7] 	0
scalar geant_cost_network.node[8].face$o[3].channel 	price[8] 	0
scalar geant_cost_network.node[8].face$o[3].channel 	represented_price[8] 	0
scalar geant_cost_network.node[21].face$o[5].channel 	price[21] 	0
scalar geant_cost_network.node[21].face$o[5].channel 	represented_price[21] 	0
scalar geant_cost_network.node[22].face$o[1].channel 	price[22] 	0
scalar geant_cost_network.node[22].face$o[1].channel 	represented_price[22] 	0
scalar geant_cost_network.node[23].face$o[1].channel 	price[23] 	1
scalar geant_cost_network.node[23].face$o[1].channel 	represented_price[23] 	1
scalar geant_cost_network.node[24].face$o[1].channel 	price[24] 	10
scalar geant_cost_network.node[24].face$o[1].channel 	represented_price[24] 	10
scalar geant_cost_network.statistics 	p_hit 	0.079526164524214
scalar geant_cost_network.statistics 	interests 	133818.6
scalar geant_cost_network.statistics 	data 	97849.8
scalar geant_cost_network.statistics 	hdistance 	3.4281314555553
scalar geant_cost_network.statistics 	avg_time 	0.005092832354
scalar geant_cost_network.statistics 	downloads 	898377
scalar geant_cost_network.statistics 	total_cost 	2253897
scalar geant_cost_network.statistics 	total_replicas 	100000
scalar geant_cost_network.statistics 	inner_hit 	0.29653697723784
scalar geant_cost_network.statistics 	interests_sent 	899223
scalar geant_cost_network.node[0].core_layer 	interests[0] 	0
scalar geant_cost_network.node[0].core_layer 	data[0] 	0
scalar geant_cost_network.node[0].core_layer 	repo_int[0] 	631975
scalar geant_cost_network.node[0].content_store 	p_hit[0] 	-nan
scalar geant_cost_network.node[0].content_store 	hits[0] 	0
scalar geant_cost_network.node[0].content_store 	misses[0] 	0
scalar geant_cost_network.node[0].content_store 	decision_yes[0] 	0
scalar geant_cost_network.node[0].content_store 	decision_no[0] 	0
scalar geant_cost_network.node[0].content_store 	decision_ratio[0] 	0
scalar geant_cost_network.node[1].core_layer 	interests[1] 	0
scalar geant_cost_network.node[1].core_layer 	data[1] 	0
scalar geant_cost_network.node[1].content_store 	p_hit[1] 	-nan
scalar geant_cost_network.node[1].content_store 	hits[1] 	0
scalar geant_cost_network.node[1].content_store 	misses[1] 	0
scalar geant_cost_network.node[1].content_store 	decision_yes[1] 	0
scalar geant_cost_network.node[1].content_store 	decision_no[1] 	0
scalar geant_cost_network.node[1].content_store 	decision_ratio[1] 	0
scalar geant_cost_network.node[2].core_layer 	interests[2] 	0
scalar geant_cost_network.node[2].core_layer 	data[2] 	0
scalar geant_cost_network.node[2].content_store 	p_hit[2] 	-nan
scalar geant_cost_network.node[2].content_store 	hits[2] 	0
scalar geant_cost_network.node[2].content_store 	misses[2] 	0
scalar geant_cost_network.node[2].content_store 	decision_yes[2] 	0
scalar geant_cost_network.node[2].content_store 	decision_no[2] 	0
scalar geant_cost_network.node[2].content_store 	decision_ratio[2] 	0
scalar geant_cost_network.node[3].core_layer 	interests[3] 	178175
scalar geant_cost_network.node[3].core_layer 	data[3] 	174348
scalar geant_cost_network.node[3].content_store 	p_hit[3] 	0.021478883120528
scalar geant_cost_network.node[3].content_store 	hits[3] 	3827
scalar geant_cost_network.node[3].content_store 	misses[3] 	174348
scalar geant_cost_network.node[3].content_store 	decision_yes[3] 	174348
scalar geant_cost_network.node[3].content_store 	decision_no[3] 	0
scalar geant_cost_network.node[3].content_store 	decision_ratio[3] 	1
scalar geant_cost_network.node[4].core_layer 	interests[4] 	264721
scalar geant_cost_network.node[4].core_layer 	data[4] 	262500
scalar geant_cost_network.node[4].content_store 	p_hit[4] 	0.0083333018536497
scalar geant_cost_network.node[4].content_store 	hits[4] 	2206
scalar geant_cost_network.node[4].content_store 	misses[4] 	262515
scalar geant_cost_network.node[4].content_store 	decision_yes[4] 	262500
scalar geant_cost_network.node[4].content_store 	decision_no[4] 	0
scalar geant_cost_network.node[4].content_store 	decision_ratio[4] 	1
scalar geant_cost_network.node[5].core_layer 	interests[5] 	180220
scalar geant_cost_network.node[5].core_layer 	data[5] 	140326
scalar geant_cost_network.node[5].content_store 	p_hit[5] 	0.21968704916214
scalar geant_cost_network.node[5].content_store 	hits[5] 	39592
scalar geant_cost_network.node[5].content_store 	misses[5] 	140628
scalar geant_cost_network.node[5].content_store 	decision_yes[5] 	140326
scalar geant_cost_network.node[5].content_store 	decision_no[5] 	0
scalar geant_cost_network.node[5].content_store 	decision_ratio[5] 	1
scalar geant_cost_network.node[6].core_layer 	interests[6] 	93257
scalar geant_cost_network.node[6].core_layer 	data[6] 	90248
scalar geant_cost_network.node[6].content_store 	p_hit[6] 	0.032265674426585
scalar geant_cost_network.node[6].content_store 	hits[6] 	3009
scalar geant_cost_network.node[6].content_store 	misses[6] 	90248
scalar geant_cost_network.node[6].content_store 	decision_yes[6] 	90248
scalar geant_cost_network.node[6].content_store 	decision_no[6] 	0
scalar geant_cost_network.node[6].content_store 	decision_ratio[6] 	1
scalar geant_cost_network.node[7].core_layer 	interests[7] 	313652
scalar geant_cost_network.node[7].core_layer 	data[7] 	299260
scalar geant_cost_network.node[7].content_store 	p_hit[7] 	0.045846989657327
scalar geant_cost_network.node[7].content_store 	hits[7] 	14380
scalar geant_cost_network.node[7].content_store 	misses[7] 	299272
scalar geant_cost_network.node[7].content_store 	decision_yes[7] 	299260
scalar geant_cost_network.node[7].content_store 	decision_no[7] 	0
scalar geant_cost_network.node[7].content_store 	decision_ratio[7] 	1
scalar geant_cost_network.node[8].core_layer 	interests[8] 	320897
scalar geant_cost_network.node[8].core_layer 	data[8] 	309345
scalar geant_cost_network.node[8].content_store 	p_hit[8] 	0.035999090050702
scalar geant_cost_network.node[8].content_store 	hits[8] 	11552
scalar geant_cost_network.node[8].content_store 	misses[8] 	309345
scalar geant_cost_network.node[8].content_store 	decision_yes[8] 	309345
scalar geant_cost_network.node[8].content_store 	decision_no[8] 	0
scalar geant_cost_network.node[8].content_store 	decision_ratio[8] 	1
scalar geant_cost_network.node[9].core_layer 	interests[9] 	371127
scalar geant_cost_network.node[9].core_layer 	data[9] 	325565
scalar geant_cost_network.node[9].content_store 	p_hit[9] 	0.12208489277255
scalar geant_cost_network.node[9].content_store 	hits[9] 	45309
scalar geant_cost_network.node[9].content_store 	misses[9] 	325818
scalar geant_cost_network.node[9].content_store 	decision_yes[9] 	325565
scalar geant_cost_network.node[9].content_store 	decision_no[9] 	0
scalar geant_cost_network.node[9].content_store 	decision_ratio[9] 	1
scalar geant_cost_network.node[10].core_layer 	interests[10] 	179918
scalar geant_cost_network.node[10].core_layer 	data[10] 	140303
scalar geant_cost_network.node[10].content_store 	p_hit[10] 	0.21944441356618
scalar geant_cost_network.node[10].content_store 	hits[10] 	39482
scalar geant_cost_network.node[10].content_store 	misses[10] 	140436
scalar geant_cost_network.node[10].content_store 	decision_yes[10] 	140303
scalar geant_cost_network.node[10].content_store 	decision_no[10] 	0
scalar geant_cost_network.node[10].content_store 	decision_ratio[10] 	1
scalar geant_cost_network.node[11].core_layer 	interests[11] 	0
scalar geant_cost_network.node[11].core_layer 	data[11] 	0
scalar geant_cost_network.node[11].content_store 	p_hit[11] 	-nan
scalar geant_cost_network.node[11].content_store 	hits[11] 	0
scalar geant_cost_network.node[11].content_store 	misses[11] 	0
scalar geant_cost_network.node[11].content_store 	decision_yes[11] 	0
scalar geant_cost_network.node[11].content_store 	decision_no[11] 	0
scalar geant_cost_network.node[11].content_store 	decision_ratio[11] 	0
scalar geant_cost_network.node[12].core_layer 	interests[12] 	274072
scalar geant_cost_network.node[12].core_layer 	data[12] 	229053
scalar geant_cost_network.node[12].content_store 	p_hit[12] 	0.16310312618582
scalar geant_cost_network.node[12].content_store 	hits[12] 	44702
scalar geant_cost_network.node[12].content_store 	misses[12] 	229370
scalar geant_cost_network.node[12].content_store 	decision_yes[12] 	229053
scalar geant_cost_network.node[12].content_store 	decision_no[12] 	0
scalar geant_cost_network.node[12].content_store 	decision_ratio[12] 	1
scalar geant_cost_network.node[13].core_layer 	interests[13] 	0
scalar geant_cost_network.node[13].core_layer 	data[13] 	0
scalar geant_cost_network.node[13].content_store 	p_hit[13] 	-nan
scalar geant_cost_network.node[13].content_store 	hits[13] 	0
scalar geant_cost_network.node[13].content_store 	misses[13] 	0
scalar geant_cost_network.node[13].content_store 	decision_yes[13] 	0
scalar geant_cost_network.node[13].content_store 	decision_no[13] 	0
scalar geant_cost_network.node[13].content_store 	decision_ratio[13] 	0
scalar geant_cost_network.node[14].core_layer 	interests[14] 	47069
scalar geant_cost_network.node[14].core_layer 	data[14] 	40967
scalar geant_cost_network.node[14].content_store 	p_hit[14] 	0.12963946546559
scalar geant_cost_network.node[14].content_store 	hits[14] 	6102
scalar geant_cost_network.node[14].content_store 	misses[14] 	40967
scalar geant_cost_network.node[14].content_store 	decision_yes[14] 	40967
scalar geant_cost_network.node[14].content_store 	decision_no[14] 	0
scalar geant_cost_network.node[14].content_store 	decision_ratio[14] 	1
scalar geant_cost_network.node[15].core_layer 	interests[15] 	0
scalar geant_cost_network.node[15].core_layer 	data[15] 	0
scalar geant_cost_network.node[15].content_store 	p_hit[15] 	-nan
scalar geant_cost_network.node[15].content_store 	hits[15] 	0
scalar geant_cost_network.node[15].content_store 	misses[15] 	0
scalar geant_cost_network.node[15].content_store 	decision_yes[15] 	0
scalar geant_cost_network.node[15].content_store 	decision_no[15] 	0
scalar geant_cost_network.node[15].content_store 	decision_ratio[15] 	0
scalar geant_cost_network.node[16].core_layer 	interests[16] 	0
scalar geant_cost_network.node[16].core_layer 	data[16] 	0
scalar geant_cost_network.node[16].content_store 	p_hit[16] 	-nan
scalar geant_cost_network.node[16].content_store 	hits[16] 	0
scalar geant_cost_network.node[16].content_store 	misses[16] 	0
scalar geant_cost_network.node[16].content_store 	decision_yes[16] 	0
scalar geant_cost_network.node[16].content_store 	decision_no[16] 	0
scalar geant_cost_network.node[16].content_store 	decision_ratio[16] 	0
scalar geant_cost_network.node[17].core_layer 	interests[17] 	0
scalar geant_cost_network.node[17].core_layer 	data[17] 	0
scalar geant_cost_network.node[17].content_store 	p_hit[17] 	-nan
scalar geant_cost_network.node[17].content_store 	hits[17] 	0
scalar geant_cost_network.node[17].content_store 	misses[17] 	0
scalar geant_cost_network.node[17].content_store 	decision_yes[17] 	0
scalar geant_cost_network.node[17].content_store 	decision_no[17] 	0
scalar geant_cost_network.node[17].content_store 	decision_ratio[17] 	0
scalar geant_cost_network.node[18].core_layer 	interests[18] 	93373
scalar geant_cost_network.node[18].core_layer 	data[18] 	90372
scalar geant_cost_network.node[18].content_store 	p_hit[18] 	0.032139911965986
scalar geant_cost_network.node[18].content_store 	hits[18] 	3001
scalar geant_cost_network.node[18].content_store 	misses[18] 	90372
scalar geant_cost_network.node[18].content_store 	decision_yes[18] 	90372
scalar geant_cost_network.node[18].content_store 	decision_no[18] 	0
scalar geant_cost_network.node[18].content_store 	decision_ratio[18] 	1
scalar geant_cost_network.node[19].core_layer 	interests[19] 	0
scalar geant_cost_network.node[19].core_layer 	data[19] 	0
scalar geant_cost_network.node[19].content_store 	p_hit[19] 	-nan
scalar geant_cost_network.node[19].content_store 	hits[19] 	0
scalar geant_cost_network.node[19].content_store 	misses[19] 	0
scalar geant_cost_network.node[19].content_store 	decision_yes[19] 	0
scalar geant_cost_network.node[19].content_store 	decision_no[19] 	0
scalar geant_cost_network.node[19].content_store 	decision_ratio[19] 	0
scalar geant_cost_network.node[20].core_layer 	interests[20] 	179961
scalar geant_cost_network.node[20].core_layer 	data[20] 	140519
scalar geant_cost_network.node[20].content_store 	p_hit[20] 	0.21827507070976
scalar geant_cost_network.node[20].content_store 	hits[20] 	39281
scalar geant_cost_network.node[20].content_store 	misses[20] 	140680
scalar geant_cost_network.node[20].content_store 	decision_yes[20] 	140519
scalar geant_cost_network.node[20].content_store 	decision_no[20] 	0
scalar geant_cost_network.node[20].content_store 	decision_ratio[20] 	1
scalar geant_cost_network.node[21].core_layer 	interests[21] 	217048
scalar geant_cost_network.node[21].core_layer 	data[21] 	203439
scalar geant_cost_network.node[21].content_store 	p_hit[21] 	0.062700416497733
scalar geant_cost_network.node[21].content_store 	hits[21] 	13609
scalar geant_cost_network.node[21].content_store 	misses[21] 	203439
scalar geant_cost_network.node[21].content_store 	decision_yes[21] 	203439
scalar geant_cost_network.node[21].content_store 	decision_no[21] 	0
scalar geant_cost_network.node[21].content_store 	decision_ratio[21] 	1
scalar geant_cost_network.node[22].core_layer 	interests[22] 	209029
scalar geant_cost_network.node[22].core_layer 	repo_load[22] 	209029
scalar geant_cost_network.node[22].core_layer 	data[22] 	0
scalar geant_cost_network.node[22].content_store 	p_hit[22] 	0
scalar geant_cost_network.node[22].content_store 	hits[22] 	0
scalar geant_cost_network.node[22].content_store 	misses[22] 	209029
scalar geant_cost_network.node[22].content_store 	decision_yes[22] 	0
scalar geant_cost_network.node[22].content_store 	decision_no[22] 	209029
scalar geant_cost_network.node[22].content_store 	decision_ratio[22] 	0
scalar geant_cost_network.node[23].core_layer 	interests[23] 	219507
scalar geant_cost_network.node[23].core_layer 	repo_load[23] 	219507
scalar geant_cost_network.node[23].core_layer 	data[23] 	0
scalar geant_cost_network.node[23].content_store 	p_hit[23] 	0
scalar geant_cost_network.node[23].content_store 	hits[23] 	0
scalar geant_cost_network.node[23].content_store 	misses[23] 	219507
scalar geant_cost_network.node[23].content_store 	decision_yes[23] 	0
scalar geant_cost_network.node[23].content_store 	decision_no[23] 	219507
scalar geant_cost_network.node[23].content_store 	decision_ratio[23] 	0
scalar geant_cost_network.node[24].core_layer 	interests[24] 	203439
scalar geant_cost_network.node[24].core_layer 	repo_load[24] 	203439
scalar geant_cost_network.node[24].core_layer 	data[24] 	0
scalar geant_cost_network.node[24].content_store 	p_hit[24] 	0
scalar geant_cost_network.node[24].content_store 	hits[24] 	0
scalar geant_cost_network.node[24].content_store 	misses[24] 	203439
scalar geant_cost_network.node[24].content_store 	decision_yes[24] 	0
scalar geant_cost_network.node[24].content_store 	decision_no[24] 	203439
scalar geant_cost_network.node[24].content_store 	decision_ratio[24] 	0
scalar geant_cost_network.client[5] 	hdistance[5] 	3.1134627997199
scalar geant_cost_network.client[5] 	downloads[5] 	179918
scalar geant_cost_network.client[5] 	avg_time[5] 	0.008059555107
scalar geant_cost_network.client[5] 	interests_sent[5] 	180220
scalar geant_cost_network.client[9] 	hdistance[9] 	3.2609981762377
scalar geant_cost_network.client[9] 	downloads[9] 	179848
scalar geant_cost_network.client[9] 	avg_time[9] 	0.003274604171
scalar geant_cost_network.client[9] 	interests_sent[9] 	179949
scalar geant_cost_network.client[10] 	hdistance[10] 	3.8599493839864
scalar geant_cost_network.client[10] 	downloads[10] 	179785
scalar geant_cost_network.client[10] 	avg_time[10] 	0.004652174817
scalar geant_cost_network.client[10] 	interests_sent[10] 	179918
scalar geant_cost_network.client[12] 	hdistance[12] 	3.4731212226157
scalar geant_cost_network.client[12] 	downloads[12] 	179026
scalar geant_cost_network.client[12] 	avg_time[12] 	0.003895001187
scalar geant_cost_network.client[12] 	interests_sent[12] 	179175
scalar geant_cost_network.client[20] 	hdistance[20] 	3.4331256952169
scalar geant_cost_network.client[20] 	downloads[20] 	179800
scalar geant_cost_network.client[20] 	avg_time[20] 	0.005582826488
scalar geant_cost_network.client[20] 	interests_sent[20] 	179961
