version 2
run General-1-20140917-15:46:06-17196
attr D lcd
attr F spr
attr R lru
attr a 0.5
attr configname General
attr datetime 20140917-15:46:06
attr experiment General
attr inifile omnetpp.ini
attr iterationvars "$net=abilene, $rep=0, $a=0.5, $F=spr, $ttl=1000, $D=lcd, $R=lru"
attr iterationvars2 "$net=abilene, $rep=0, $a=0.5, $F=spr, $ttl=1000, $D=lcd, $R=lru, $repetition=0"
attr measurement "$net=abilene, $rep=0, $a=0.5, $F=spr, $ttl=1000, $D=lcd, $R=lru"
attr net abilene
attr network networks.${net=abilene}_network
attr processid 17196
attr rep 0
attr repetition 0
attr replication #0
attr resultdir results
attr runnumber 1
attr seedset 0
attr ttl 1000

scalar . 	a 	0.5
scalar . 	rep 	0
scalar . 	ttl 	1000
scalar abilene_network.content_distribution 	repo-0 	5
scalar abilene_network.content_distribution 	client-0 	0
scalar abilene_network.content_distribution 	client-1 	3
scalar abilene_network.content_distribution 	client-2 	7
scalar abilene_network.content_distribution 	client-3 	9
scalar abilene_network.content_distribution 	client-4 	5
scalar abilene_network.content_distribution 	client-5 	2
scalar abilene_network.content_distribution 	client-6 	4
scalar abilene_network.content_distribution 	client-7 	6
scalar abilene_network.content_distribution 	client-8 	8
scalar abilene_network.content_distribution 	client-9 	10
scalar abilene_network.content_distribution 	client-10 	1
scalar abilene_network.content_distribution 	repo-0_card 	10000
scalar abilene_network.content_distribution 	repo-0_price 	0
scalar abilene_network.statistics 	stabilization_time 	8239.3
scalar abilene_network.statistics 	p_hit 	0.026976839396421
scalar abilene_network.statistics 	interests 	6217.4545454545
scalar abilene_network.statistics 	data 	4428.8181818182
scalar abilene_network.statistics 	hdistance 	3.3963991045833
scalar abilene_network.statistics 	avg_time 	0.014045901408
scalar abilene_network.statistics 	downloads 	19675
scalar abilene_network.statistics 	total_cost 	0
scalar abilene_network.statistics 	total_replicas 	10000
scalar abilene_network.statistics 	inner_hit 	0.093773824650572
scalar abilene_network.statistics 	interests_sent 	19675
scalar abilene_network.node[0].core_layer 	interests[0] 	1772
scalar abilene_network.node[0].core_layer 	data[0] 	1626
scalar abilene_network.node[0].core_layer 	repo_int[0] 	17830
scalar abilene_network.node[0].content_store 	p_hit[0] 	0.082392776523702
scalar abilene_network.node[0].content_store 	hits[0] 	146
scalar abilene_network.node[0].content_store 	misses[0] 	1626
scalar abilene_network.node[0].content_store 	decision_yes[0] 	24
scalar abilene_network.node[0].content_store 	decision_no[0] 	1602
scalar abilene_network.node[0].content_store 	decision_ratio[0] 	0.014760147601476
scalar abilene_network.node[1].core_layer 	interests[1] 	5011
scalar abilene_network.node[1].core_layer 	data[1] 	4844
scalar abilene_network.node[1].content_store 	p_hit[1] 	0.033326681301138
scalar abilene_network.node[1].content_store 	hits[1] 	167
scalar abilene_network.node[1].content_store 	misses[1] 	4844
scalar abilene_network.node[1].content_store 	decision_yes[1] 	44
scalar abilene_network.node[1].content_store 	decision_no[1] 	4800
scalar abilene_network.node[1].content_store 	decision_ratio[1] 	0.009083402146986
scalar abilene_network.node[2].core_layer 	interests[2] 	6650
scalar abilene_network.node[2].core_layer 	data[2] 	6479
scalar abilene_network.node[2].content_store 	p_hit[2] 	0.025714285714286
scalar abilene_network.node[2].content_store 	hits[2] 	171
scalar abilene_network.node[2].content_store 	misses[2] 	6479
scalar abilene_network.node[2].content_store 	decision_yes[2] 	67
scalar abilene_network.node[2].content_store 	decision_no[2] 	6412
scalar abilene_network.node[2].content_store 	decision_ratio[2] 	0.010341102021917
scalar abilene_network.node[3].core_layer 	interests[3] 	8283
scalar abilene_network.node[3].core_layer 	data[3] 	8105
scalar abilene_network.node[3].content_store 	p_hit[3] 	0.021489798382229
scalar abilene_network.node[3].content_store 	hits[3] 	178
scalar abilene_network.node[3].content_store 	misses[3] 	8105
scalar abilene_network.node[3].content_store 	decision_yes[3] 	90
scalar abilene_network.node[3].content_store 	decision_no[3] 	8015
scalar abilene_network.node[3].content_store 	decision_ratio[3] 	0.011104256631709
scalar abilene_network.node[4].core_layer 	interests[4] 	9885
scalar abilene_network.node[4].core_layer 	data[4] 	9702
scalar abilene_network.node[4].content_store 	p_hit[4] 	0.018512898330804
scalar abilene_network.node[4].content_store 	hits[4] 	183
scalar abilene_network.node[4].content_store 	misses[4] 	9702
scalar abilene_network.node[4].content_store 	decision_yes[4] 	145
scalar abilene_network.node[4].content_store 	decision_no[4] 	9557
scalar abilene_network.node[4].content_store 	decision_ratio[4] 	0.014945372088229
scalar abilene_network.node[5].core_layer 	interests[5] 	18103
scalar abilene_network.node[5].core_layer 	repo_load[5] 	17830
scalar abilene_network.node[5].core_layer 	data[5] 	0
scalar abilene_network.node[5].content_store 	p_hit[5] 	0.01508037341877
scalar abilene_network.node[5].content_store 	hits[5] 	273
scalar abilene_network.node[5].content_store 	misses[5] 	17830
scalar abilene_network.node[5].content_store 	decision_yes[5] 	17830
scalar abilene_network.node[5].content_store 	decision_no[5] 	0
scalar abilene_network.node[5].content_store 	decision_ratio[5] 	1
scalar abilene_network.node[6].core_layer 	interests[6] 	6704
scalar abilene_network.node[6].core_layer 	data[6] 	6567
scalar abilene_network.node[6].content_store 	p_hit[6] 	0.020435560859189
scalar abilene_network.node[6].content_store 	hits[6] 	137
scalar abilene_network.node[6].content_store 	misses[6] 	6567
scalar abilene_network.node[6].content_store 	decision_yes[6] 	99
scalar abilene_network.node[6].content_store 	decision_no[6] 	6468
scalar abilene_network.node[6].content_store 	decision_ratio[6] 	0.015075376884422
scalar abilene_network.node[7].core_layer 	interests[7] 	5004
scalar abilene_network.node[7].core_layer 	data[7] 	4850
scalar abilene_network.node[7].content_store 	p_hit[7] 	0.030775379696243
scalar abilene_network.node[7].content_store 	hits[7] 	154
scalar abilene_network.node[7].content_store 	misses[7] 	4850
scalar abilene_network.node[7].content_store 	decision_yes[7] 	53
scalar abilene_network.node[7].content_store 	decision_no[7] 	4797
scalar abilene_network.node[7].content_store 	decision_ratio[7] 	0.010927835051546
scalar abilene_network.node[8].core_layer 	interests[8] 	3438
scalar abilene_network.node[8].core_layer 	data[8] 	3282
scalar abilene_network.node[8].content_store 	p_hit[8] 	0.045375218150087
scalar abilene_network.node[8].content_store 	hits[8] 	156
scalar abilene_network.node[8].content_store 	misses[8] 	3282
scalar abilene_network.node[8].content_store 	decision_yes[8] 	45
scalar abilene_network.node[8].content_store 	decision_no[8] 	3237
scalar abilene_network.node[8].content_store 	decision_ratio[8] 	0.013711151736746
scalar abilene_network.node[9].core_layer 	interests[9] 	1795
scalar abilene_network.node[9].core_layer 	data[9] 	1658
scalar abilene_network.node[9].content_store 	p_hit[9] 	0.076323119777159
scalar abilene_network.node[9].content_store 	hits[9] 	137
scalar abilene_network.node[9].content_store 	misses[9] 	1658
scalar abilene_network.node[9].content_store 	decision_yes[9] 	19
scalar abilene_network.node[9].content_store 	decision_no[9] 	1639
scalar abilene_network.node[9].content_store 	decision_ratio[9] 	0.01145958986731
scalar abilene_network.node[10].core_layer 	interests[10] 	1747
scalar abilene_network.node[10].core_layer 	data[10] 	1604
scalar abilene_network.node[10].content_store 	p_hit[10] 	0.081854607899256
scalar abilene_network.node[10].content_store 	hits[10] 	143
scalar abilene_network.node[10].content_store 	misses[10] 	1604
scalar abilene_network.node[10].content_store 	decision_yes[10] 	22
scalar abilene_network.node[10].content_store 	decision_no[10] 	1582
scalar abilene_network.node[10].content_store 	decision_ratio[10] 	0.013715710723192
scalar abilene_network.client[0] 	hdistance[0] 	5.3747178329571
scalar abilene_network.client[0] 	downloads[0] 	1772
scalar abilene_network.client[0] 	avg_time[0] 	0.028168780584
scalar abilene_network.client[0] 	interests_sent[0] 	1772
scalar abilene_network.client[1] 	hdistance[1] 	4.5491297024144
scalar abilene_network.client[1] 	downloads[1] 	1781
scalar abilene_network.client[1] 	avg_time[1] 	0.018526883324
scalar abilene_network.client[1] 	interests_sent[1] 	1781
scalar abilene_network.client[2] 	hdistance[2] 	3.6317829457364
scalar abilene_network.client[2] 	downloads[2] 	1806
scalar abilene_network.client[2] 	avg_time[2] 	0.013014185599
scalar abilene_network.client[2] 	interests_sent[2] 	1806
scalar abilene_network.client[3] 	hdistance[3] 	2.7766075388027
scalar abilene_network.client[3] 	downloads[3] 	1804
scalar abilene_network.client[3] 	avg_time[3] 	0.008724212399
scalar abilene_network.client[3] 	interests_sent[3] 	1804
scalar abilene_network.client[4] 	hdistance[4] 	1.8792134831461
scalar abilene_network.client[4] 	downloads[4] 	1780
scalar abilene_network.client[4] 	avg_time[4] 	0.007240831025
scalar abilene_network.client[4] 	interests_sent[4] 	1780
scalar abilene_network.client[5] 	hdistance[5] 	0.98418756815703
scalar abilene_network.client[5] 	downloads[5] 	1834
scalar abilene_network.client[5] 	avg_time[5] 	0
scalar abilene_network.client[5] 	interests_sent[5] 	1834
scalar abilene_network.client[6] 	hdistance[6] 	1.8948220064725
scalar abilene_network.client[6] 	downloads[6] 	1854
scalar abilene_network.client[6] 	avg_time[6] 	0.002100323154
scalar abilene_network.client[6] 	interests_sent[6] 	1854
scalar abilene_network.client[7] 	hdistance[7] 	2.7764227642276
scalar abilene_network.client[7] 	downloads[7] 	1722
scalar abilene_network.client[7] 	avg_time[7] 	0.00748934916
scalar abilene_network.client[7] 	interests_sent[7] 	1722
scalar abilene_network.client[8] 	hdistance[8] 	3.611797752809
scalar abilene_network.client[8] 	downloads[8] 	1780
scalar abilene_network.client[8] 	avg_time[8] 	0.014221774837
scalar abilene_network.client[8] 	interests_sent[8] 	1780
scalar abilene_network.client[9] 	hdistance[9] 	4.5136490250696
scalar abilene_network.client[9] 	downloads[9] 	1795
scalar abilene_network.client[9] 	avg_time[9] 	0.027699732126
scalar abilene_network.client[9] 	interests_sent[9] 	1795
scalar abilene_network.client[10] 	hdistance[10] 	5.3680595306239
scalar abilene_network.client[10] 	downloads[10] 	1747
scalar abilene_network.client[10] 	avg_time[10] 	0.027318843288
scalar abilene_network.client[10] 	interests_sent[10] 	1747
