version 2
run General-909-20140423-18:54:54-26744
attr D costprob0.1
attr F nrr
attr R lru
attr a 0
attr configname General
attr csize 2
attr ctlg 10^3
attr datetime 20140423-18:54:54
attr experiment General
attr inifile omnetpp.ini
attr iterationvars "$net=simple_scenario, $rep=3, $priceratiovalue=6, $a=0, $ctlg=10^3, $F=nrr, $ttl=1000, $D=costprob0.1, $R=lru, $csize=2"
attr iterationvars2 "$net=simple_scenario, $rep=3, $priceratiovalue=6, $a=0, $ctlg=10^3, $F=nrr, $ttl=1000, $D=costprob0.1, $R=lru, $csize=2, $repetition=0"
attr measurement "$net=simple_scenario, $rep=3, $priceratiovalue=6, $a=0, $ctlg=10^3, $F=nrr, $ttl=1000, $D=costprob0.1, $R=lru, $csize=2"
attr net simple_scenario
attr network networks.${net=simple_scenario}_network
attr priceratiovalue 6
attr processid 26744
attr rep 3
attr repetition 0
attr replication #0
attr resultdir results
attr runnumber 909
attr seedset 3
attr ttl 1000

scalar . 	a 	0
scalar . 	csize 	2
scalar . 	priceratiovalue 	6
scalar . 	rep 	3
scalar . 	ttl 	1000
scalar simple_scenario_network.content_distribution 	repo-0 	3
scalar simple_scenario_network.content_distribution 	repo-1 	4
scalar simple_scenario_network.content_distribution 	client-0 	0
scalar simple_scenario_network.content_distribution 	repo-0_card 	524
scalar simple_scenario_network.content_distribution 	repo-1_card 	476
scalar simple_scenario_network.statistics 	p_hit 	0.0018424338681277
scalar simple_scenario_network.statistics 	interests 	107792.2
scalar simple_scenario_network.statistics 	data 	71775
scalar simple_scenario_network.statistics 	hdistance 	2.9872838532701
scalar simple_scenario_network.statistics 	avg_time 	0.001999689851
scalar simple_scenario_network.statistics 	downloads 	180086
scalar simple_scenario_network.statistics 	total_cost 	86215
scalar simple_scenario_network.node[0].core_layer 	interests[0] 	180086
scalar simple_scenario_network.node[0].core_layer 	data[0] 	179782
scalar simple_scenario_network.node[0].core_layer 	repo_int[0] 	179093
scalar simple_scenario_network.node[0].content_store 	p_hit[0] 	0.0016880823606499
scalar simple_scenario_network.node[0].content_store 	hits[0] 	304
scalar simple_scenario_network.node[0].content_store 	misses[0] 	179782
scalar simple_scenario_network.node[1].core_layer 	interests[1] 	94554
scalar simple_scenario_network.node[1].core_layer 	data[1] 	94209
scalar simple_scenario_network.node[1].content_store 	p_hit[1] 	0.0036487086744083
scalar simple_scenario_network.node[1].content_store 	hits[1] 	345
scalar simple_scenario_network.node[1].content_store 	misses[1] 	94209
scalar simple_scenario_network.node[2].core_layer 	interests[2] 	85228
scalar simple_scenario_network.node[2].core_layer 	data[2] 	84884
scalar simple_scenario_network.node[2].content_store 	p_hit[2] 	0.0040362322241517
scalar simple_scenario_network.node[2].content_store 	hits[2] 	344
scalar simple_scenario_network.node[2].content_store 	misses[2] 	84884
scalar simple_scenario_network.node[3].core_layer 	interests[3] 	94209
scalar simple_scenario_network.node[3].core_layer 	repo_load[3] 	94209
scalar simple_scenario_network.node[3].core_layer 	data[3] 	0
scalar simple_scenario_network.node[3].content_store 	p_hit[3] 	0
scalar simple_scenario_network.node[3].content_store 	hits[3] 	0
scalar simple_scenario_network.node[3].content_store 	misses[3] 	94209
scalar simple_scenario_network.node[4].core_layer 	interests[4] 	84884
scalar simple_scenario_network.node[4].core_layer 	repo_load[4] 	84884
scalar simple_scenario_network.node[4].core_layer 	data[4] 	0
scalar simple_scenario_network.node[4].content_store 	p_hit[4] 	0
scalar simple_scenario_network.node[4].content_store 	hits[4] 	0
scalar simple_scenario_network.node[4].content_store 	misses[4] 	84884
scalar simple_scenario_network.client[0] 	hdistance[0] 	2.9872838532701
scalar simple_scenario_network.client[0] 	downloads[0] 	180086
scalar simple_scenario_network.client[0] 	avg_time[0] 	0.001999689851
