version 2
run General-47-20140630-13:29:10-25933
attr D costprobprodcorr0.01
attr F spr
attr R lru
attr a 1
attr configname General
attr csize 1e3
attr ctlg 1e5
attr datetime 20140630-13:29:10
attr experiment General
attr inifile omnetpp.ini
attr iterationvars "$net=abilene_cost, $rep=13, $priceratiovalue=10, $weights=0.333_0.333_0.334, $lambda=100, $a=1, $ctlg=1e5, $F=spr, $ttl=1000, $D=costprobprodcorr0.01, $xi=1, $R=lru, $csize=1e3, $pricebits=0, $window=60, $variance=0.05, $mytime=1800"
attr iterationvars2 "$net=abilene_cost, $rep=13, $priceratiovalue=10, $weights=0.333_0.333_0.334, $lambda=100, $a=1, $ctlg=1e5, $F=spr, $ttl=1000, $D=costprobprodcorr0.01, $xi=1, $R=lru, $csize=1e3, $pricebits=0, $window=60, $variance=0.05, $mytime=1800, $repetition=0"
attr lambda 100
attr measurement "$net=abilene_cost, $rep=13, $priceratiovalue=10, $weights=0.333_0.333_0.334, $lambda=100, $a=1, $ctlg=1e5, $F=spr, $ttl=1000, $D=costprobprodcorr0.01, $xi=1, $R=lru, $csize=1e3, $pricebits=0, $window=60, $variance=0.05, $mytime=1800"
attr mytime 1800
attr net abilene_cost
attr network "networks.${net=geant_cost, abilene_cost}_network"
attr pricebits 0
attr priceratiovalue 10
attr processid 25933
attr rep 13
attr repetition 0
attr replication #0
attr resultdir results
attr runnumber 47
attr seedset 13
attr ttl 1000
attr variance 0.05
attr weights 0.333_0.333_0.334
attr window 60
attr xi 1

scalar . 	a 	1
scalar . 	csize 	1e3
scalar . 	ctlg 	1e5
scalar . 	lambda 	100
scalar . 	mytime 	1800
scalar . 	pricebits 	0
scalar . 	priceratiovalue 	10
scalar . 	rep 	13
scalar . 	ttl 	1000
scalar . 	variance 	0.05
scalar . 	window 	60
scalar . 	xi 	1
scalar abilene_cost_network.content_distribution 	repo-0 	11
scalar abilene_cost_network.content_distribution 	repo-1 	12
scalar abilene_cost_network.content_distribution 	repo-2 	13
scalar abilene_cost_network.content_distribution 	client-0 	5
scalar abilene_cost_network.content_distribution 	client-1 	0
scalar abilene_cost_network.content_distribution 	client-2 	9
scalar abilene_cost_network.content_distribution 	repo-0_card 	33150
scalar abilene_cost_network.content_distribution 	repo-1_card 	33483
scalar abilene_cost_network.content_distribution 	repo-2_card 	33367
scalar abilene_cost_network.statistics 	repo_popularity[0] 	0.32452364638376
scalar abilene_cost_network.statistics 	repo_popularity[1] 	0.39627169592308
scalar abilene_cost_network.statistics 	repo_popularity[2] 	0.27920465769315
scalar abilene_cost_network.statistics 	stabilization_time 	1846.5
scalar abilene_cost_network.node[1].face$o[4].channel 	price[1] 	0
scalar abilene_cost_network.node[1].face$o[4].channel 	represented_price[1] 	0
scalar abilene_cost_network.node[7].face$o[4].channel 	price[7] 	0
scalar abilene_cost_network.node[7].face$o[4].channel 	represented_price[7] 	0
scalar abilene_cost_network.node[10].face$o[4].channel 	price[10] 	0
scalar abilene_cost_network.node[10].face$o[4].channel 	represented_price[10] 	0
scalar abilene_cost_network.node[11].face$o[1].channel 	price[11] 	0
scalar abilene_cost_network.node[11].face$o[1].channel 	represented_price[11] 	0
scalar abilene_cost_network.node[12].face$o[1].channel 	price[12] 	1
scalar abilene_cost_network.node[12].face$o[1].channel 	represented_price[12] 	1
scalar abilene_cost_network.node[13].face$o[1].channel 	price[13] 	10
scalar abilene_cost_network.node[13].face$o[1].channel 	represented_price[13] 	10
scalar abilene_cost_network.statistics 	p_hit 	0.097621779562307
scalar abilene_cost_network.statistics 	interests 	139879.5
scalar abilene_cost_network.statistics 	data 	101356.57142857
scalar abilene_cost_network.statistics 	hdistance 	3.2909442493768
scalar abilene_cost_network.statistics 	avg_time 	0.012889709622
scalar abilene_cost_network.statistics 	downloads 	536151
scalar abilene_cost_network.statistics 	total_cost 	921009
scalar abilene_cost_network.statistics 	total_replicas 	100000
scalar abilene_cost_network.statistics 	inner_hit 	0.35656932468652
scalar abilene_cost_network.statistics 	interests_sent 	539323
scalar abilene_cost_network.node[0].core_layer 	interests[0] 	179802
scalar abilene_cost_network.node[0].core_layer 	data[0] 	152377
scalar abilene_cost_network.node[0].core_layer 	repo_int[0] 	344976
scalar abilene_cost_network.node[0].content_store 	p_hit[0] 	0.14668357415379
scalar abilene_cost_network.node[0].content_store 	hits[0] 	26374
scalar abilene_cost_network.node[0].content_store 	misses[0] 	153428
scalar abilene_cost_network.node[0].content_store 	decision_yes[0] 	899
scalar abilene_cost_network.node[0].content_store 	decision_no[0] 	151478
scalar abilene_cost_network.node[0].content_store 	decision_ratio[0] 	0.0058998405271137
scalar abilene_cost_network.node[0].content_store 	correction_factor[0] 	0.0027225701061802
scalar abilene_cost_network.node[0].content_store 	xi[0] 	1
scalar abilene_cost_network.node[1].core_layer 	interests[1] 	225614
scalar abilene_cost_network.node[1].core_layer 	data[1] 	189926
scalar abilene_cost_network.node[1].content_store 	p_hit[1] 	0.15818610547218
scalar abilene_cost_network.node[1].content_store 	hits[1] 	35689
scalar abilene_cost_network.node[1].content_store 	misses[1] 	189925
scalar abilene_cost_network.node[1].content_store 	decision_yes[1] 	2318
scalar abilene_cost_network.node[1].content_store 	decision_no[1] 	187608
scalar abilene_cost_network.node[1].content_store 	decision_ratio[1] 	0.012204753430283
scalar abilene_cost_network.node[1].content_store 	correction_factor[1] 	0.0027225701061802
scalar abilene_cost_network.node[1].content_store 	xi[1] 	1
scalar abilene_cost_network.node[2].core_layer 	interests[2] 	148211
scalar abilene_cost_network.node[2].core_layer 	data[2] 	141297
scalar abilene_cost_network.node[2].content_store 	p_hit[2] 	0.046649708861016
scalar abilene_cost_network.node[2].content_store 	hits[2] 	6914
scalar abilene_cost_network.node[2].content_store 	misses[2] 	141297
scalar abilene_cost_network.node[2].content_store 	decision_yes[2] 	796
scalar abilene_cost_network.node[2].content_store 	decision_no[2] 	140501
scalar abilene_cost_network.node[2].content_store 	decision_ratio[2] 	0.0056335237124638
scalar abilene_cost_network.node[2].content_store 	correction_factor[2] 	0.0027225701061802
scalar abilene_cost_network.node[2].content_store 	xi[2] 	1
scalar abilene_cost_network.node[3].core_layer 	interests[3] 	148708
scalar abilene_cost_network.node[3].core_layer 	data[3] 	137419
scalar abilene_cost_network.node[3].content_store 	p_hit[3] 	0.075913871479678
scalar abilene_cost_network.node[3].content_store 	hits[3] 	11289
scalar abilene_cost_network.node[3].content_store 	misses[3] 	137419
scalar abilene_cost_network.node[3].content_store 	decision_yes[3] 	756
scalar abilene_cost_network.node[3].content_store 	decision_no[3] 	136663
scalar abilene_cost_network.node[3].content_store 	decision_ratio[3] 	0.0055014226562557
scalar abilene_cost_network.node[3].content_store 	correction_factor[3] 	0.0027225701061802
scalar abilene_cost_network.node[3].content_store 	xi[3] 	1
scalar abilene_cost_network.node[4].core_layer 	interests[4] 	104675
scalar abilene_cost_network.node[4].core_layer 	data[4] 	101034
scalar abilene_cost_network.node[4].content_store 	p_hit[4] 	0.034783854788631
scalar abilene_cost_network.node[4].content_store 	hits[4] 	3641
scalar abilene_cost_network.node[4].content_store 	misses[4] 	101034
scalar abilene_cost_network.node[4].content_store 	decision_yes[4] 	701
scalar abilene_cost_network.node[4].content_store 	decision_no[4] 	100333
scalar abilene_cost_network.node[4].content_store 	decision_ratio[4] 	0.0069382584080607
scalar abilene_cost_network.node[4].content_store 	correction_factor[4] 	0.0027225701061802
scalar abilene_cost_network.node[4].content_store 	xi[4] 	1
scalar abilene_cost_network.node[5].core_layer 	interests[5] 	179847
scalar abilene_cost_network.node[5].core_layer 	data[5] 	164652
scalar abilene_cost_network.node[5].content_store 	p_hit[5] 	0.076709647644943
scalar abilene_cost_network.node[5].content_store 	hits[5] 	13796
scalar abilene_cost_network.node[5].content_store 	misses[5] 	166051
scalar abilene_cost_network.node[5].content_store 	decision_yes[5] 	814
scalar abilene_cost_network.node[5].content_store 	decision_no[5] 	163838
scalar abilene_cost_network.node[5].content_store 	decision_ratio[5] 	0.0049437601729709
scalar abilene_cost_network.node[5].content_store 	correction_factor[5] 	0.0027225701061802
scalar abilene_cost_network.node[5].content_store 	xi[5] 	1
scalar abilene_cost_network.node[6].core_layer 	interests[6] 	59977
scalar abilene_cost_network.node[6].core_layer 	data[6] 	39347
scalar abilene_cost_network.node[6].content_store 	p_hit[6] 	0.34396518665488
scalar abilene_cost_network.node[6].content_store 	hits[6] 	20630
scalar abilene_cost_network.node[6].content_store 	misses[6] 	39347
scalar abilene_cost_network.node[6].content_store 	decision_yes[6] 	69
scalar abilene_cost_network.node[6].content_store 	decision_no[6] 	39278
scalar abilene_cost_network.node[6].content_store 	decision_ratio[6] 	0.00175362797672
scalar abilene_cost_network.node[6].content_store 	correction_factor[6] 	0.0027225701061802
scalar abilene_cost_network.node[6].content_store 	xi[6] 	1
scalar abilene_cost_network.node[7].core_layer 	interests[7] 	117765
scalar abilene_cost_network.node[7].core_layer 	data[7] 	88199
scalar abilene_cost_network.node[7].content_store 	p_hit[7] 	0.25105931303868
scalar abilene_cost_network.node[7].content_store 	hits[7] 	29566
scalar abilene_cost_network.node[7].content_store 	misses[7] 	88199
scalar abilene_cost_network.node[7].content_store 	decision_yes[7] 	247
scalar abilene_cost_network.node[7].content_store 	decision_no[7] 	87952
scalar abilene_cost_network.node[7].content_store 	decision_ratio[7] 	0.0028004852662729
scalar abilene_cost_network.node[7].content_store 	correction_factor[7] 	0.0027225701061802
scalar abilene_cost_network.node[7].content_store 	xi[7] 	1
scalar abilene_cost_network.node[8].core_layer 	interests[8] 	52098
scalar abilene_cost_network.node[8].core_layer 	data[8] 	40194
scalar abilene_cost_network.node[8].content_store 	p_hit[8] 	0.22849245652424
scalar abilene_cost_network.node[8].content_store 	hits[8] 	11904
scalar abilene_cost_network.node[8].content_store 	misses[8] 	40194
scalar abilene_cost_network.node[8].content_store 	decision_yes[8] 	70
scalar abilene_cost_network.node[8].content_store 	decision_no[8] 	40124
scalar abilene_cost_network.node[8].content_store 	decision_ratio[8] 	0.0017415534656914
scalar abilene_cost_network.node[8].content_store 	correction_factor[8] 	0.0027225701061802
scalar abilene_cost_network.node[8].content_store 	xi[8] 	1
scalar abilene_cost_network.node[9].core_layer 	interests[9] 	179674
scalar abilene_cost_network.node[9].core_layer 	data[9] 	153609
scalar abilene_cost_network.node[9].content_store 	p_hit[9] 	0.14104990148825
scalar abilene_cost_network.node[9].content_store 	hits[9] 	25343
scalar abilene_cost_network.node[9].content_store 	misses[9] 	154331
scalar abilene_cost_network.node[9].content_store 	decision_yes[9] 	897
scalar abilene_cost_network.node[9].content_store 	decision_no[9] 	152712
scalar abilene_cost_network.node[9].content_store 	decision_ratio[9] 	0.0058395015917036
scalar abilene_cost_network.node[9].content_store 	correction_factor[9] 	0.0027225701061802
scalar abilene_cost_network.node[9].content_store 	xi[9] 	1
scalar abilene_cost_network.node[10].core_layer 	interests[10] 	216966
scalar abilene_cost_network.node[10].core_layer 	data[10] 	210938
scalar abilene_cost_network.node[10].content_store 	p_hit[10] 	0.027783154964372
scalar abilene_cost_network.node[10].content_store 	hits[10] 	6028
scalar abilene_cost_network.node[10].content_store 	misses[10] 	210938
scalar abilene_cost_network.node[10].content_store 	decision_yes[10] 	764
scalar abilene_cost_network.node[10].content_store 	decision_no[10] 	210174
scalar abilene_cost_network.node[10].content_store 	decision_ratio[10] 	0.0036219173406404
scalar abilene_cost_network.node[10].content_store 	correction_factor[10] 	0.0027225701061802
scalar abilene_cost_network.node[10].content_store 	xi[10] 	1
scalar abilene_cost_network.node[11].core_layer 	interests[11] 	173496
scalar abilene_cost_network.node[11].core_layer 	repo_load[11] 	173496
scalar abilene_cost_network.node[11].core_layer 	data[11] 	0
scalar abilene_cost_network.node[11].content_store 	p_hit[11] 	0
scalar abilene_cost_network.node[11].content_store 	hits[11] 	0
scalar abilene_cost_network.node[11].content_store 	misses[11] 	173496
scalar abilene_cost_network.node[11].content_store 	decision_yes[11] 	0
scalar abilene_cost_network.node[11].content_store 	decision_no[11] 	173496
scalar abilene_cost_network.node[11].content_store 	decision_ratio[11] 	0
scalar abilene_cost_network.node[12].core_layer 	interests[12] 	88199
scalar abilene_cost_network.node[12].core_layer 	repo_load[12] 	88199
scalar abilene_cost_network.node[12].core_layer 	data[12] 	0
scalar abilene_cost_network.node[12].content_store 	p_hit[12] 	0
scalar abilene_cost_network.node[12].content_store 	hits[12] 	0
scalar abilene_cost_network.node[12].content_store 	misses[12] 	88199
scalar abilene_cost_network.node[12].content_store 	decision_yes[12] 	0
scalar abilene_cost_network.node[12].content_store 	decision_no[12] 	88199
scalar abilene_cost_network.node[12].content_store 	decision_ratio[12] 	0
scalar abilene_cost_network.node[13].core_layer 	interests[13] 	83281
scalar abilene_cost_network.node[13].core_layer 	repo_load[13] 	83281
scalar abilene_cost_network.node[13].core_layer 	data[13] 	0
scalar abilene_cost_network.node[13].content_store 	p_hit[13] 	0
scalar abilene_cost_network.node[13].content_store 	hits[13] 	0
scalar abilene_cost_network.node[13].content_store 	misses[13] 	83281
scalar abilene_cost_network.node[13].content_store 	decision_yes[13] 	0
scalar abilene_cost_network.node[13].content_store 	decision_no[13] 	83281
scalar abilene_cost_network.node[13].content_store 	decision_ratio[13] 	0
scalar abilene_cost_network.client[0] 	hdistance[0] 	2.918439617121
scalar abilene_cost_network.client[0] 	downloads[0] 	178751
scalar abilene_cost_network.client[0] 	avg_time[0] 	0.012156852816
scalar abilene_cost_network.client[0] 	interests_sent[0] 	179802
scalar abilene_cost_network.client[5] 	hdistance[5] 	4.3721420245673
scalar abilene_cost_network.client[5] 	downloads[5] 	178448
scalar abilene_cost_network.client[5] 	avg_time[5] 	0.016539373125
scalar abilene_cost_network.client[5] 	interests_sent[5] 	179847
scalar abilene_cost_network.client[9] 	hdistance[9] 	2.5822511064419
scalar abilene_cost_network.client[9] 	downloads[9] 	178952
scalar abilene_cost_network.client[9] 	avg_time[9] 	0.009972902926
scalar abilene_cost_network.client[9] 	interests_sent[9] 	179674
