version 2
run General-47-20140627-19:47:52-22868
attr D costprobprodcorr0.01
attr F spr
attr R lru
attr a 1
attr configname General
attr csize 1e3
attr ctlg 1e5
attr datetime 20140627-19:47:52
attr experiment General
attr inifile omnetpp.ini
attr iterationvars "$net=abilene_cost, $rep=15, $priceratiovalue=10, $weights=0.333_0.333_0.334, $lambda=100, $a=1, $ctlg=1e5, $F=spr, $ttl=1000, $D=costprobprodcorr0.01, $xi=1, $R=lru, $csize=1e3, $pricebits=0, $window=60, $variance=0.05, $mytime=1800"
attr iterationvars2 "$net=abilene_cost, $rep=15, $priceratiovalue=10, $weights=0.333_0.333_0.334, $lambda=100, $a=1, $ctlg=1e5, $F=spr, $ttl=1000, $D=costprobprodcorr0.01, $xi=1, $R=lru, $csize=1e3, $pricebits=0, $window=60, $variance=0.05, $mytime=1800, $repetition=0"
attr lambda 100
attr measurement "$net=abilene_cost, $rep=15, $priceratiovalue=10, $weights=0.333_0.333_0.334, $lambda=100, $a=1, $ctlg=1e5, $F=spr, $ttl=1000, $D=costprobprodcorr0.01, $xi=1, $R=lru, $csize=1e3, $pricebits=0, $window=60, $variance=0.05, $mytime=1800"
attr mytime 1800
attr net abilene_cost
attr network "networks.${net=geant_cost, abilene_cost}_network"
attr pricebits 0
attr priceratiovalue 10
attr processid 22868
attr rep 15
attr repetition 0
attr replication #0
attr resultdir results
attr runnumber 47
attr seedset 15
attr ttl 1000
attr variance 0.05
attr weights 0.333_0.333_0.334
attr window 60
attr xi 1

scalar . 	a 	1
scalar . 	csize 	1e3
scalar . 	ctlg 	1e5
scalar . 	lambda 	100
scalar . 	mytime 	1800
scalar . 	pricebits 	0
scalar . 	priceratiovalue 	10
scalar . 	rep 	15
scalar . 	ttl 	1000
scalar . 	variance 	0.05
scalar . 	window 	60
scalar . 	xi 	1
scalar abilene_cost_network.content_distribution 	repo-0 	11
scalar abilene_cost_network.content_distribution 	repo-1 	12
scalar abilene_cost_network.content_distribution 	repo-2 	13
scalar abilene_cost_network.content_distribution 	client-0 	5
scalar abilene_cost_network.content_distribution 	client-1 	0
scalar abilene_cost_network.content_distribution 	client-2 	9
scalar abilene_cost_network.content_distribution 	repo-0_card 	33353
scalar abilene_cost_network.content_distribution 	repo-1_card 	33285
scalar abilene_cost_network.content_distribution 	repo-2_card 	33362
scalar abilene_cost_network.statistics 	repo_popularity[0] 	0.34920511897542
scalar abilene_cost_network.statistics 	repo_popularity[1] 	0.27009721586053
scalar abilene_cost_network.statistics 	repo_popularity[2] 	0.38069766516405
scalar abilene_cost_network.statistics 	stabilization_time 	1829.8
scalar abilene_cost_network.node[1].face$o[4].channel 	price[1] 	0
scalar abilene_cost_network.node[1].face$o[4].channel 	represented_price[1] 	0
scalar abilene_cost_network.node[7].face$o[4].channel 	price[7] 	0
scalar abilene_cost_network.node[7].face$o[4].channel 	represented_price[7] 	0
scalar abilene_cost_network.node[10].face$o[4].channel 	price[10] 	0
scalar abilene_cost_network.node[10].face$o[4].channel 	represented_price[10] 	0
scalar abilene_cost_network.node[11].face$o[1].channel 	price[11] 	0
scalar abilene_cost_network.node[11].face$o[1].channel 	represented_price[11] 	0
scalar abilene_cost_network.node[12].face$o[1].channel 	price[12] 	1
scalar abilene_cost_network.node[12].face$o[1].channel 	represented_price[12] 	1
scalar abilene_cost_network.node[13].face$o[1].channel 	price[13] 	10
scalar abilene_cost_network.node[13].face$o[1].channel 	represented_price[13] 	10
scalar abilene_cost_network.statistics 	p_hit 	0.087613570892048
scalar abilene_cost_network.statistics 	interests 	143687.78571429
scalar abilene_cost_network.statistics 	data 	105173.14285714
scalar abilene_cost_network.statistics 	hdistance 	3.4337790349406
scalar abilene_cost_network.statistics 	avg_time 	0.013606100064
scalar abilene_cost_network.statistics 	downloads 	532683
scalar abilene_cost_network.statistics 	total_cost 	920960
scalar abilene_cost_network.statistics 	total_replicas 	100000
scalar abilene_cost_network.statistics 	inner_hit 	0.3308646981413
scalar abilene_cost_network.statistics 	interests_sent 	539198
scalar abilene_cost_network.node[0].core_layer 	interests[0] 	179934
scalar abilene_cost_network.node[0].core_layer 	data[0] 	165738
scalar abilene_cost_network.node[0].core_layer 	repo_int[0] 	356437
scalar abilene_cost_network.node[0].content_store 	p_hit[0] 	0.067057921237787
scalar abilene_cost_network.node[0].content_store 	hits[0] 	12066
scalar abilene_cost_network.node[0].content_store 	misses[0] 	167868
scalar abilene_cost_network.node[0].content_store 	decision_yes[0] 	972
scalar abilene_cost_network.node[0].content_store 	decision_no[0] 	164766
scalar abilene_cost_network.node[0].content_store 	decision_ratio[0] 	0.0058646779857365
scalar abilene_cost_network.node[0].content_store 	correction_factor[0] 	0.0027225701061802
scalar abilene_cost_network.node[0].content_store 	xi[0] 	1
scalar abilene_cost_network.node[1].core_layer 	interests[1] 	246701
scalar abilene_cost_network.node[1].core_layer 	data[1] 	190972
scalar abilene_cost_network.node[1].content_store 	p_hit[1] 	0.22588882898732
scalar abilene_cost_network.node[1].content_store 	hits[1] 	55727
scalar abilene_cost_network.node[1].content_store 	misses[1] 	190974
scalar abilene_cost_network.node[1].content_store 	decision_yes[1] 	2361
scalar abilene_cost_network.node[1].content_store 	decision_no[1] 	188611
scalar abilene_cost_network.node[1].content_store 	decision_ratio[1] 	0.012363068931571
scalar abilene_cost_network.node[1].content_store 	correction_factor[1] 	0.0027225701061802
scalar abilene_cost_network.node[1].content_store 	xi[1] 	1
scalar abilene_cost_network.node[2].core_layer 	interests[2] 	142617
scalar abilene_cost_network.node[2].core_layer 	data[2] 	137621
scalar abilene_cost_network.node[2].content_store 	p_hit[2] 	0.035016863347287
scalar abilene_cost_network.node[2].content_store 	hits[2] 	4994
scalar abilene_cost_network.node[2].content_store 	misses[2] 	137623
scalar abilene_cost_network.node[2].content_store 	decision_yes[2] 	816
scalar abilene_cost_network.node[2].content_store 	decision_no[2] 	136805
scalar abilene_cost_network.node[2].content_store 	decision_ratio[2] 	0.0059293276462168
scalar abilene_cost_network.node[2].content_store 	correction_factor[2] 	0.0027225701061802
scalar abilene_cost_network.node[2].content_store 	xi[2] 	1
scalar abilene_cost_network.node[3].core_layer 	interests[3] 	147714
scalar abilene_cost_network.node[3].core_layer 	data[3] 	138201
scalar abilene_cost_network.node[3].content_store 	p_hit[3] 	0.064387938854814
scalar abilene_cost_network.node[3].content_store 	hits[3] 	9511
scalar abilene_cost_network.node[3].content_store 	misses[3] 	138203
scalar abilene_cost_network.node[3].content_store 	decision_yes[3] 	790
scalar abilene_cost_network.node[3].content_store 	decision_no[3] 	137411
scalar abilene_cost_network.node[3].content_store 	decision_ratio[3] 	0.0057163117488296
scalar abilene_cost_network.node[3].content_store 	correction_factor[3] 	0.0027225701061802
scalar abilene_cost_network.node[3].content_store 	xi[3] 	1
scalar abilene_cost_network.node[4].core_layer 	interests[4] 	121945
scalar abilene_cost_network.node[4].core_layer 	data[4] 	103163
scalar abilene_cost_network.node[4].content_store 	p_hit[4] 	0.15400385419656
scalar abilene_cost_network.node[4].content_store 	hits[4] 	18780
scalar abilene_cost_network.node[4].content_store 	misses[4] 	103165
scalar abilene_cost_network.node[4].content_store 	decision_yes[4] 	696
scalar abilene_cost_network.node[4].content_store 	decision_no[4] 	102467
scalar abilene_cost_network.node[4].content_store 	decision_ratio[4] 	0.0067466048874112
scalar abilene_cost_network.node[4].content_store 	correction_factor[4] 	0.0027225701061802
scalar abilene_cost_network.node[4].content_store 	xi[4] 	1
scalar abilene_cost_network.node[5].core_layer 	interests[5] 	179663
scalar abilene_cost_network.node[5].core_layer 	data[5] 	167028
scalar abilene_cost_network.node[5].content_store 	p_hit[5] 	0.057574458847954
scalar abilene_cost_network.node[5].content_store 	hits[5] 	10344
scalar abilene_cost_network.node[5].content_store 	misses[5] 	169319
scalar abilene_cost_network.node[5].content_store 	decision_yes[5] 	782
scalar abilene_cost_network.node[5].content_store 	decision_no[5] 	166246
scalar abilene_cost_network.node[5].content_store 	decision_ratio[5] 	0.0046818497497426
scalar abilene_cost_network.node[5].content_store 	correction_factor[5] 	0.0027225701061802
scalar abilene_cost_network.node[5].content_store 	xi[5] 	1
scalar abilene_cost_network.node[6].core_layer 	interests[6] 	45086
scalar abilene_cost_network.node[6].core_layer 	data[6] 	40378
scalar abilene_cost_network.node[6].content_store 	p_hit[6] 	0.10440047908442
scalar abilene_cost_network.node[6].content_store 	hits[6] 	4707
scalar abilene_cost_network.node[6].content_store 	misses[6] 	40379
scalar abilene_cost_network.node[6].content_store 	decision_yes[6] 	72
scalar abilene_cost_network.node[6].content_store 	decision_no[6] 	40306
scalar abilene_cost_network.node[6].content_store 	decision_ratio[6] 	0.001783149239685
scalar abilene_cost_network.node[6].content_store 	correction_factor[6] 	0.0027225701061802
scalar abilene_cost_network.node[6].content_store 	xi[6] 	1
scalar abilene_cost_network.node[7].core_layer 	interests[7] 	123758
scalar abilene_cost_network.node[7].core_layer 	data[7] 	86200
scalar abilene_cost_network.node[7].content_store 	p_hit[7] 	0.30347937103056
scalar abilene_cost_network.node[7].content_store 	hits[7] 	37558
scalar abilene_cost_network.node[7].content_store 	misses[7] 	86200
scalar abilene_cost_network.node[7].content_store 	decision_yes[7] 	221
scalar abilene_cost_network.node[7].content_store 	decision_no[7] 	85979
scalar abilene_cost_network.node[7].content_store 	decision_ratio[7] 	0.0025638051044084
scalar abilene_cost_network.node[7].content_store 	correction_factor[7] 	0.0027225701061802
scalar abilene_cost_network.node[7].content_store 	xi[7] 	1
scalar abilene_cost_network.node[8].core_layer 	interests[8] 	46748
scalar abilene_cost_network.node[8].core_layer 	data[8] 	41749
scalar abilene_cost_network.node[8].content_store 	p_hit[8] 	0.10693505604518
scalar abilene_cost_network.node[8].content_store 	hits[8] 	4999
scalar abilene_cost_network.node[8].content_store 	misses[8] 	41749
scalar abilene_cost_network.node[8].content_store 	decision_yes[8] 	96
scalar abilene_cost_network.node[8].content_store 	decision_no[8] 	41653
scalar abilene_cost_network.node[8].content_store 	decision_ratio[8] 	0.0022994562744018
scalar abilene_cost_network.node[8].content_store 	correction_factor[8] 	0.0027225701061802
scalar abilene_cost_network.node[8].content_store 	xi[8] 	1
scalar abilene_cost_network.node[9].core_layer 	interests[9] 	179601
scalar abilene_cost_network.node[9].core_layer 	data[9] 	164033
scalar abilene_cost_network.node[9].content_store 	p_hit[9] 	0.075021853998586
scalar abilene_cost_network.node[9].content_store 	hits[9] 	13474
scalar abilene_cost_network.node[9].content_store 	misses[9] 	166127
scalar abilene_cost_network.node[9].content_store 	decision_yes[9] 	789
scalar abilene_cost_network.node[9].content_store 	decision_no[9] 	163244
scalar abilene_cost_network.node[9].content_store 	decision_ratio[9] 	0.0048100077423445
scalar abilene_cost_network.node[9].content_store 	correction_factor[9] 	0.0027225701061802
scalar abilene_cost_network.node[9].content_store 	xi[9] 	1
scalar abilene_cost_network.node[10].core_layer 	interests[10] 	241425
scalar abilene_cost_network.node[10].core_layer 	data[10] 	237341
scalar abilene_cost_network.node[10].content_store 	p_hit[10] 	0.016924510717614
scalar abilene_cost_network.node[10].content_store 	hits[10] 	4086
scalar abilene_cost_network.node[10].content_store 	misses[10] 	237339
scalar abilene_cost_network.node[10].content_store 	decision_yes[10] 	740
scalar abilene_cost_network.node[10].content_store 	decision_no[10] 	236601
scalar abilene_cost_network.node[10].content_store 	decision_ratio[10] 	0.0031178768101592
scalar abilene_cost_network.node[10].content_store 	correction_factor[10] 	0.0027225701061802
scalar abilene_cost_network.node[10].content_store 	xi[10] 	1
scalar abilene_cost_network.node[11].core_layer 	interests[11] 	186761
scalar abilene_cost_network.node[11].core_layer 	repo_load[11] 	186761
scalar abilene_cost_network.node[11].core_layer 	data[11] 	0
scalar abilene_cost_network.node[11].content_store 	p_hit[11] 	0
scalar abilene_cost_network.node[11].content_store 	hits[11] 	0
scalar abilene_cost_network.node[11].content_store 	misses[11] 	186761
scalar abilene_cost_network.node[11].content_store 	decision_yes[11] 	0
scalar abilene_cost_network.node[11].content_store 	decision_no[11] 	186761
scalar abilene_cost_network.node[11].content_store 	decision_ratio[11] 	0
scalar abilene_cost_network.node[12].core_layer 	interests[12] 	86200
scalar abilene_cost_network.node[12].core_layer 	repo_load[12] 	86200
scalar abilene_cost_network.node[12].core_layer 	data[12] 	0
scalar abilene_cost_network.node[12].content_store 	p_hit[12] 	0
scalar abilene_cost_network.node[12].content_store 	hits[12] 	0
scalar abilene_cost_network.node[12].content_store 	misses[12] 	86200
scalar abilene_cost_network.node[12].content_store 	decision_yes[12] 	0
scalar abilene_cost_network.node[12].content_store 	decision_no[12] 	86200
scalar abilene_cost_network.node[12].content_store 	decision_ratio[12] 	0
scalar abilene_cost_network.node[13].core_layer 	interests[13] 	83476
scalar abilene_cost_network.node[13].core_layer 	repo_load[13] 	83476
scalar abilene_cost_network.node[13].core_layer 	data[13] 	0
scalar abilene_cost_network.node[13].content_store 	p_hit[13] 	0
scalar abilene_cost_network.node[13].content_store 	hits[13] 	0
scalar abilene_cost_network.node[13].content_store 	misses[13] 	83476
scalar abilene_cost_network.node[13].content_store 	decision_yes[13] 	0
scalar abilene_cost_network.node[13].content_store 	decision_no[13] 	83476
scalar abilene_cost_network.node[13].content_store 	decision_ratio[13] 	0
scalar abilene_cost_network.client[0] 	hdistance[0] 	3.0428055611797
scalar abilene_cost_network.client[0] 	downloads[0] 	177804
scalar abilene_cost_network.client[0] 	avg_time[0] 	0.012803588208
scalar abilene_cost_network.client[0] 	interests_sent[0] 	179934
scalar abilene_cost_network.client[5] 	hdistance[5] 	4.4752497575717
scalar abilene_cost_network.client[5] 	downloads[5] 	177372
scalar abilene_cost_network.client[5] 	avg_time[5] 	0.017327293621
scalar abilene_cost_network.client[5] 	interests_sent[5] 	179663
scalar abilene_cost_network.client[9] 	hdistance[9] 	2.7832817860704
scalar abilene_cost_network.client[9] 	downloads[9] 	177507
scalar abilene_cost_network.client[9] 	avg_time[9] 	0.010687418365
scalar abilene_cost_network.client[9] 	interests_sent[9] 	179601
