version 2
run General-55-20140627-19:51:23-22885
attr D costprobprodcorr0.01
attr F spr
attr R lru
attr a 1
attr configname General
attr csize 1e3
attr ctlg 1e5
attr datetime 20140627-19:51:23
attr experiment General
attr inifile omnetpp.ini
attr iterationvars "$net=abilene_cost, $rep=16, $priceratiovalue=10, $weights=0.333_0.333_0.334, $lambda=100, $a=1, $ctlg=1e5, $F=spr, $ttl=1000, $D=costprobprodcorr0.01, $xi=1, $R=lru, $csize=1e3, $pricebits=0, $window=60, $variance=0.05, $mytime=1800"
attr iterationvars2 "$net=abilene_cost, $rep=16, $priceratiovalue=10, $weights=0.333_0.333_0.334, $lambda=100, $a=1, $ctlg=1e5, $F=spr, $ttl=1000, $D=costprobprodcorr0.01, $xi=1, $R=lru, $csize=1e3, $pricebits=0, $window=60, $variance=0.05, $mytime=1800, $repetition=0"
attr lambda 100
attr measurement "$net=abilene_cost, $rep=16, $priceratiovalue=10, $weights=0.333_0.333_0.334, $lambda=100, $a=1, $ctlg=1e5, $F=spr, $ttl=1000, $D=costprobprodcorr0.01, $xi=1, $R=lru, $csize=1e3, $pricebits=0, $window=60, $variance=0.05, $mytime=1800"
attr mytime 1800
attr net abilene_cost
attr network "networks.${net=geant_cost, abilene_cost}_network"
attr pricebits 0
attr priceratiovalue 10
attr processid 22885
attr rep 16
attr repetition 0
attr replication #0
attr resultdir results
attr runnumber 55
attr seedset 16
attr ttl 1000
attr variance 0.05
attr weights 0.333_0.333_0.334
attr window 60
attr xi 1

scalar . 	a 	1
scalar . 	csize 	1e3
scalar . 	ctlg 	1e5
scalar . 	lambda 	100
scalar . 	mytime 	1800
scalar . 	pricebits 	0
scalar . 	priceratiovalue 	10
scalar . 	rep 	16
scalar . 	ttl 	1000
scalar . 	variance 	0.05
scalar . 	window 	60
scalar . 	xi 	1
scalar abilene_cost_network.content_distribution 	repo-0 	11
scalar abilene_cost_network.content_distribution 	repo-1 	12
scalar abilene_cost_network.content_distribution 	repo-2 	13
scalar abilene_cost_network.content_distribution 	client-0 	5
scalar abilene_cost_network.content_distribution 	client-1 	0
scalar abilene_cost_network.content_distribution 	client-2 	9
scalar abilene_cost_network.content_distribution 	repo-0_card 	33302
scalar abilene_cost_network.content_distribution 	repo-1_card 	33208
scalar abilene_cost_network.content_distribution 	repo-2_card 	33490
scalar abilene_cost_network.statistics 	repo_popularity[0] 	0.38028263519115
scalar abilene_cost_network.statistics 	repo_popularity[1] 	0.2853641311191
scalar abilene_cost_network.statistics 	repo_popularity[2] 	0.33435323368975
scalar abilene_cost_network.statistics 	stabilization_time 	2360.2
scalar abilene_cost_network.node[1].face$o[4].channel 	price[1] 	0
scalar abilene_cost_network.node[1].face$o[4].channel 	represented_price[1] 	0
scalar abilene_cost_network.node[7].face$o[4].channel 	price[7] 	0
scalar abilene_cost_network.node[7].face$o[4].channel 	represented_price[7] 	0
scalar abilene_cost_network.node[10].face$o[4].channel 	price[10] 	0
scalar abilene_cost_network.node[10].face$o[4].channel 	represented_price[10] 	0
scalar abilene_cost_network.node[11].face$o[1].channel 	price[11] 	0
scalar abilene_cost_network.node[11].face$o[1].channel 	represented_price[11] 	0
scalar abilene_cost_network.node[12].face$o[1].channel 	price[12] 	1
scalar abilene_cost_network.node[12].face$o[1].channel 	represented_price[12] 	1
scalar abilene_cost_network.node[13].face$o[1].channel 	price[13] 	10
scalar abilene_cost_network.node[13].face$o[1].channel 	represented_price[13] 	10
scalar abilene_cost_network.statistics 	p_hit 	0.07850490434107
scalar abilene_cost_network.statistics 	interests 	147100
scalar abilene_cost_network.statistics 	data 	108563.64285714
scalar abilene_cost_network.statistics 	hdistance 	3.5579914231423
scalar abilene_cost_network.statistics 	avg_time 	0.013783528927
scalar abilene_cost_network.statistics 	downloads 	532033
scalar abilene_cost_network.statistics 	total_cost 	925875
scalar abilene_cost_network.statistics 	total_replicas 	100000
scalar abilene_cost_network.statistics 	inner_hit 	0.30387776698062
scalar abilene_cost_network.statistics 	interests_sent 	539510
scalar abilene_cost_network.node[0].core_layer 	interests[0] 	179443
scalar abilene_cost_network.node[0].core_layer 	data[0] 	158255
scalar abilene_cost_network.node[0].core_layer 	repo_int[0] 	370360
scalar abilene_cost_network.node[0].content_store 	p_hit[0] 	0.10699776530709
scalar abilene_cost_network.node[0].content_store 	hits[0] 	19200
scalar abilene_cost_network.node[0].content_store 	misses[0] 	160243
scalar abilene_cost_network.node[0].content_store 	decision_yes[0] 	910
scalar abilene_cost_network.node[0].content_store 	decision_no[0] 	157345
scalar abilene_cost_network.node[0].content_store 	decision_ratio[0] 	0.005750213263404
scalar abilene_cost_network.node[0].content_store 	correction_factor[0] 	0.0027225701061802
scalar abilene_cost_network.node[0].content_store 	xi[0] 	1
scalar abilene_cost_network.node[1].core_layer 	interests[1] 	234876
scalar abilene_cost_network.node[1].core_layer 	data[1] 	198369
scalar abilene_cost_network.node[1].content_store 	p_hit[1] 	0.15543520836527
scalar abilene_cost_network.node[1].content_store 	hits[1] 	36508
scalar abilene_cost_network.node[1].content_store 	misses[1] 	198368
scalar abilene_cost_network.node[1].content_store 	decision_yes[1] 	2333
scalar abilene_cost_network.node[1].content_store 	decision_no[1] 	196036
scalar abilene_cost_network.node[1].content_store 	decision_ratio[1] 	0.011760910222867
scalar abilene_cost_network.node[1].content_store 	correction_factor[1] 	0.0027225701061802
scalar abilene_cost_network.node[1].content_store 	xi[1] 	1
scalar abilene_cost_network.node[2].core_layer 	interests[2] 	156598
scalar abilene_cost_network.node[2].core_layer 	data[2] 	147593
scalar abilene_cost_network.node[2].content_store 	p_hit[2] 	0.057510313030818
scalar abilene_cost_network.node[2].content_store 	hits[2] 	9006
scalar abilene_cost_network.node[2].content_store 	misses[2] 	147592
scalar abilene_cost_network.node[2].content_store 	decision_yes[2] 	757
scalar abilene_cost_network.node[2].content_store 	decision_no[2] 	146836
scalar abilene_cost_network.node[2].content_store 	decision_ratio[2] 	0.0051289695310753
scalar abilene_cost_network.node[2].content_store 	correction_factor[2] 	0.0027225701061802
scalar abilene_cost_network.node[2].content_store 	xi[2] 	1
scalar abilene_cost_network.node[3].core_layer 	interests[3] 	157834
scalar abilene_cost_network.node[3].core_layer 	data[3] 	152118
scalar abilene_cost_network.node[3].content_store 	p_hit[3] 	0.036215264138272
scalar abilene_cost_network.node[3].content_store 	hits[3] 	5716
scalar abilene_cost_network.node[3].content_store 	misses[3] 	152118
scalar abilene_cost_network.node[3].content_store 	decision_yes[3] 	799
scalar abilene_cost_network.node[3].content_store 	decision_no[3] 	151319
scalar abilene_cost_network.node[3].content_store 	decision_ratio[3] 	0.005252501347638
scalar abilene_cost_network.node[3].content_store 	correction_factor[3] 	0.0027225701061802
scalar abilene_cost_network.node[3].content_store 	xi[3] 	1
scalar abilene_cost_network.node[4].core_layer 	interests[4] 	116304
scalar abilene_cost_network.node[4].core_layer 	data[4] 	109557
scalar abilene_cost_network.node[4].content_store 	p_hit[4] 	0.058003164121612
scalar abilene_cost_network.node[4].content_store 	hits[4] 	6746
scalar abilene_cost_network.node[4].content_store 	misses[4] 	109558
scalar abilene_cost_network.node[4].content_store 	decision_yes[4] 	702
scalar abilene_cost_network.node[4].content_store 	decision_no[4] 	108855
scalar abilene_cost_network.node[4].content_store 	decision_ratio[4] 	0.0064076234289
scalar abilene_cost_network.node[4].content_store 	correction_factor[4] 	0.0027225701061802
scalar abilene_cost_network.node[4].content_store 	xi[4] 	1
scalar abilene_cost_network.node[5].core_layer 	interests[5] 	179948
scalar abilene_cost_network.node[5].core_layer 	data[5] 	164838
scalar abilene_cost_network.node[5].content_store 	p_hit[5] 	0.061351056972014
scalar abilene_cost_network.node[5].content_store 	hits[5] 	11040
scalar abilene_cost_network.node[5].content_store 	misses[5] 	168908
scalar abilene_cost_network.node[5].content_store 	decision_yes[5] 	807
scalar abilene_cost_network.node[5].content_store 	decision_no[5] 	164031
scalar abilene_cost_network.node[5].content_store 	decision_ratio[5] 	0.0048957157936883
scalar abilene_cost_network.node[5].content_store 	correction_factor[5] 	0.0027225701061802
scalar abilene_cost_network.node[5].content_store 	xi[5] 	1
scalar abilene_cost_network.node[6].core_layer 	interests[6] 	48535
scalar abilene_cost_network.node[6].core_layer 	data[6] 	44268
scalar abilene_cost_network.node[6].content_store 	p_hit[6] 	0.087915936952715
scalar abilene_cost_network.node[6].content_store 	hits[6] 	4267
scalar abilene_cost_network.node[6].content_store 	misses[6] 	44268
scalar abilene_cost_network.node[6].content_store 	decision_yes[6] 	74
scalar abilene_cost_network.node[6].content_store 	decision_no[6] 	44194
scalar abilene_cost_network.node[6].content_store 	decision_ratio[6] 	0.0016716363964941
scalar abilene_cost_network.node[6].content_store 	correction_factor[6] 	0.0027225701061802
scalar abilene_cost_network.node[6].content_store 	xi[6] 	1
scalar abilene_cost_network.node[7].core_layer 	interests[7] 	132941
scalar abilene_cost_network.node[7].core_layer 	data[7] 	86025
scalar abilene_cost_network.node[7].content_store 	p_hit[7] 	0.35290843306429
scalar abilene_cost_network.node[7].content_store 	hits[7] 	46916
scalar abilene_cost_network.node[7].content_store 	misses[7] 	86025
scalar abilene_cost_network.node[7].content_store 	decision_yes[7] 	244
scalar abilene_cost_network.node[7].content_store 	decision_no[7] 	85781
scalar abilene_cost_network.node[7].content_store 	decision_ratio[7] 	0.0028363847718686
scalar abilene_cost_network.node[7].content_store 	correction_factor[7] 	0.0027225701061802
scalar abilene_cost_network.node[7].content_store 	xi[7] 	1
scalar abilene_cost_network.node[8].core_layer 	interests[8] 	48087
scalar abilene_cost_network.node[8].core_layer 	data[8] 	43805
scalar abilene_cost_network.node[8].content_store 	p_hit[8] 	0.089046935762264
scalar abilene_cost_network.node[8].content_store 	hits[8] 	4282
scalar abilene_cost_network.node[8].content_store 	misses[8] 	43805
scalar abilene_cost_network.node[8].content_store 	decision_yes[8] 	80
scalar abilene_cost_network.node[8].content_store 	decision_no[8] 	43725
scalar abilene_cost_network.node[8].content_store 	decision_ratio[8] 	0.001826275539322
scalar abilene_cost_network.node[8].content_store 	correction_factor[8] 	0.0027225701061802
scalar abilene_cost_network.node[8].content_store 	xi[8] 	1
scalar abilene_cost_network.node[9].core_layer 	interests[9] 	180119
scalar abilene_cost_network.node[9].core_layer 	data[9] 	170121
scalar abilene_cost_network.node[9].content_store 	p_hit[9] 	0.047629622638367
scalar abilene_cost_network.node[9].content_store 	hits[9] 	8579
scalar abilene_cost_network.node[9].content_store 	misses[9] 	171540
scalar abilene_cost_network.node[9].content_store 	decision_yes[9] 	817
scalar abilene_cost_network.node[9].content_store 	decision_no[9] 	169304
scalar abilene_cost_network.node[9].content_store 	decision_ratio[9] 	0.0048024641284733
scalar abilene_cost_network.node[9].content_store 	correction_factor[9] 	0.0027225701061802
scalar abilene_cost_network.node[9].content_store 	xi[9] 	1
scalar abilene_cost_network.node[10].core_layer 	interests[10] 	254355
scalar abilene_cost_network.node[10].core_layer 	data[10] 	244942
scalar abilene_cost_network.node[10].content_store 	p_hit[10] 	0.037007332271825
scalar abilene_cost_network.node[10].content_store 	hits[10] 	9413
scalar abilene_cost_network.node[10].content_store 	misses[10] 	244942
scalar abilene_cost_network.node[10].content_store 	decision_yes[10] 	778
scalar abilene_cost_network.node[10].content_store 	decision_no[10] 	244164
scalar abilene_cost_network.node[10].content_store 	decision_ratio[10] 	0.003176262135526
scalar abilene_cost_network.node[10].content_store 	correction_factor[10] 	0.0027225701061802
scalar abilene_cost_network.node[10].content_store 	xi[10] 	1
scalar abilene_cost_network.node[11].core_layer 	interests[11] 	200350
scalar abilene_cost_network.node[11].core_layer 	repo_load[11] 	200350
scalar abilene_cost_network.node[11].core_layer 	data[11] 	0
scalar abilene_cost_network.node[11].content_store 	p_hit[11] 	0
scalar abilene_cost_network.node[11].content_store 	hits[11] 	0
scalar abilene_cost_network.node[11].content_store 	misses[11] 	200350
scalar abilene_cost_network.node[11].content_store 	decision_yes[11] 	0
scalar abilene_cost_network.node[11].content_store 	decision_no[11] 	200350
scalar abilene_cost_network.node[11].content_store 	decision_ratio[11] 	0
scalar abilene_cost_network.node[12].core_layer 	interests[12] 	86025
scalar abilene_cost_network.node[12].core_layer 	repo_load[12] 	86025
scalar abilene_cost_network.node[12].core_layer 	data[12] 	0
scalar abilene_cost_network.node[12].content_store 	p_hit[12] 	0
scalar abilene_cost_network.node[12].content_store 	hits[12] 	0
scalar abilene_cost_network.node[12].content_store 	misses[12] 	86025
scalar abilene_cost_network.node[12].content_store 	decision_yes[12] 	0
scalar abilene_cost_network.node[12].content_store 	decision_no[12] 	86025
scalar abilene_cost_network.node[12].content_store 	decision_ratio[12] 	0
scalar abilene_cost_network.node[13].core_layer 	interests[13] 	83985
scalar abilene_cost_network.node[13].core_layer 	repo_load[13] 	83985
scalar abilene_cost_network.node[13].core_layer 	data[13] 	0
scalar abilene_cost_network.node[13].content_store 	p_hit[13] 	0
scalar abilene_cost_network.node[13].content_store 	hits[13] 	0
scalar abilene_cost_network.node[13].content_store 	misses[13] 	83985
scalar abilene_cost_network.node[13].content_store 	decision_yes[13] 	0
scalar abilene_cost_network.node[13].content_store 	decision_no[13] 	83985
scalar abilene_cost_network.node[13].content_store 	decision_ratio[13] 	0
scalar abilene_cost_network.client[0] 	hdistance[0] 	3.1239469161196
scalar abilene_cost_network.client[0] 	downloads[0] 	177455
scalar abilene_cost_network.client[0] 	avg_time[0] 	0.01259533812
scalar abilene_cost_network.client[0] 	interests_sent[0] 	179443
scalar abilene_cost_network.client[5] 	hdistance[5] 	4.7132842083717
scalar abilene_cost_network.client[5] 	downloads[5] 	175878
scalar abilene_cost_network.client[5] 	avg_time[5] 	0.018174338653
scalar abilene_cost_network.client[5] 	interests_sent[5] 	179948
scalar abilene_cost_network.client[9] 	hdistance[9] 	2.8367431449357
scalar abilene_cost_network.client[9] 	downloads[9] 	178700
scalar abilene_cost_network.client[9] 	avg_time[9] 	0.010580910008
scalar abilene_cost_network.client[9] 	interests_sent[9] 	180119
