version 2
run General-39-20140630-13:25:40-25920
attr D costprobprodcorr0.01
attr F spr
attr R lru
attr a 1
attr configname General
attr csize 1e3
attr ctlg 1e5
attr datetime 20140630-13:25:40
attr experiment General
attr inifile omnetpp.ini
attr iterationvars "$net=abilene_cost, $rep=12, $priceratiovalue=10, $weights=0.333_0.333_0.334, $lambda=100, $a=1, $ctlg=1e5, $F=spr, $ttl=1000, $D=costprobprodcorr0.01, $xi=1, $R=lru, $csize=1e3, $pricebits=0, $window=60, $variance=0.05, $mytime=1800"
attr iterationvars2 "$net=abilene_cost, $rep=12, $priceratiovalue=10, $weights=0.333_0.333_0.334, $lambda=100, $a=1, $ctlg=1e5, $F=spr, $ttl=1000, $D=costprobprodcorr0.01, $xi=1, $R=lru, $csize=1e3, $pricebits=0, $window=60, $variance=0.05, $mytime=1800, $repetition=0"
attr lambda 100
attr measurement "$net=abilene_cost, $rep=12, $priceratiovalue=10, $weights=0.333_0.333_0.334, $lambda=100, $a=1, $ctlg=1e5, $F=spr, $ttl=1000, $D=costprobprodcorr0.01, $xi=1, $R=lru, $csize=1e3, $pricebits=0, $window=60, $variance=0.05, $mytime=1800"
attr mytime 1800
attr net abilene_cost
attr network "networks.${net=geant_cost, abilene_cost}_network"
attr pricebits 0
attr priceratiovalue 10
attr processid 25920
attr rep 12
attr repetition 0
attr replication #0
attr resultdir results
attr runnumber 39
attr seedset 12
attr ttl 1000
attr variance 0.05
attr weights 0.333_0.333_0.334
attr window 60
attr xi 1

scalar . 	a 	1
scalar . 	csize 	1e3
scalar . 	ctlg 	1e5
scalar . 	lambda 	100
scalar . 	mytime 	1800
scalar . 	pricebits 	0
scalar . 	priceratiovalue 	10
scalar . 	rep 	12
scalar . 	ttl 	1000
scalar . 	variance 	0.05
scalar . 	window 	60
scalar . 	xi 	1
scalar abilene_cost_network.content_distribution 	repo-0 	11
scalar abilene_cost_network.content_distribution 	repo-1 	12
scalar abilene_cost_network.content_distribution 	repo-2 	13
scalar abilene_cost_network.content_distribution 	client-0 	5
scalar abilene_cost_network.content_distribution 	client-1 	0
scalar abilene_cost_network.content_distribution 	client-2 	9
scalar abilene_cost_network.content_distribution 	repo-0_card 	33376
scalar abilene_cost_network.content_distribution 	repo-1_card 	33439
scalar abilene_cost_network.content_distribution 	repo-2_card 	33185
scalar abilene_cost_network.statistics 	repo_popularity[0] 	0.3146103286495
scalar abilene_cost_network.statistics 	repo_popularity[1] 	0.33182472258399
scalar abilene_cost_network.statistics 	repo_popularity[2] 	0.35356494876651
scalar abilene_cost_network.statistics 	stabilization_time 	1968.8
scalar abilene_cost_network.node[1].face$o[4].channel 	price[1] 	0
scalar abilene_cost_network.node[1].face$o[4].channel 	represented_price[1] 	0
scalar abilene_cost_network.node[7].face$o[4].channel 	price[7] 	0
scalar abilene_cost_network.node[7].face$o[4].channel 	represented_price[7] 	0
scalar abilene_cost_network.node[10].face$o[4].channel 	price[10] 	0
scalar abilene_cost_network.node[10].face$o[4].channel 	represented_price[10] 	0
scalar abilene_cost_network.node[11].face$o[1].channel 	price[11] 	0
scalar abilene_cost_network.node[11].face$o[1].channel 	represented_price[11] 	0
scalar abilene_cost_network.node[12].face$o[1].channel 	price[12] 	1
scalar abilene_cost_network.node[12].face$o[1].channel 	represented_price[12] 	1
scalar abilene_cost_network.node[13].face$o[1].channel 	price[13] 	10
scalar abilene_cost_network.node[13].face$o[1].channel 	represented_price[13] 	10
scalar abilene_cost_network.statistics 	p_hit 	0.098088759640915
scalar abilene_cost_network.statistics 	interests 	141232.14285714
scalar abilene_cost_network.statistics 	data 	102622.78571429
scalar abilene_cost_network.statistics 	hdistance 	3.3255515051661
scalar abilene_cost_network.statistics 	avg_time 	0.013215205288
scalar abilene_cost_network.statistics 	downloads 	535268
scalar abilene_cost_network.statistics 	total_cost 	927602
scalar abilene_cost_network.statistics 	total_replicas 	100000
scalar abilene_cost_network.statistics 	inner_hit 	0.36233438202919
scalar abilene_cost_network.statistics 	interests_sent 	540532
scalar abilene_cost_network.node[0].core_layer 	interests[0] 	180370
scalar abilene_cost_network.node[0].core_layer 	data[0] 	163454
scalar abilene_cost_network.node[0].core_layer 	repo_int[0] 	341322
scalar abilene_cost_network.node[0].content_store 	p_hit[0] 	0.082147807285025
scalar abilene_cost_network.node[0].content_store 	hits[0] 	14817
scalar abilene_cost_network.node[0].content_store 	misses[0] 	165553
scalar abilene_cost_network.node[0].content_store 	decision_yes[0] 	883
scalar abilene_cost_network.node[0].content_store 	decision_no[0] 	162571
scalar abilene_cost_network.node[0].content_store 	decision_ratio[0] 	0.0054021314865344
scalar abilene_cost_network.node[0].content_store 	correction_factor[0] 	0.0027225701061802
scalar abilene_cost_network.node[0].content_store 	xi[0] 	1
scalar abilene_cost_network.node[1].core_layer 	interests[1] 	228818
scalar abilene_cost_network.node[1].core_layer 	data[1] 	187920
scalar abilene_cost_network.node[1].content_store 	p_hit[1] 	0.17874030889178
scalar abilene_cost_network.node[1].content_store 	hits[1] 	40899
scalar abilene_cost_network.node[1].content_store 	misses[1] 	187919
scalar abilene_cost_network.node[1].content_store 	decision_yes[1] 	2338
scalar abilene_cost_network.node[1].content_store 	decision_no[1] 	185582
scalar abilene_cost_network.node[1].content_store 	decision_ratio[1] 	0.012441464452959
scalar abilene_cost_network.node[1].content_store 	correction_factor[1] 	0.0027225701061802
scalar abilene_cost_network.node[1].content_store 	xi[1] 	1
scalar abilene_cost_network.node[2].core_layer 	interests[2] 	140083
scalar abilene_cost_network.node[2].core_layer 	data[2] 	131505
scalar abilene_cost_network.node[2].content_store 	p_hit[2] 	0.061242263515202
scalar abilene_cost_network.node[2].content_store 	hits[2] 	8579
scalar abilene_cost_network.node[2].content_store 	misses[2] 	131504
scalar abilene_cost_network.node[2].content_store 	decision_yes[2] 	757
scalar abilene_cost_network.node[2].content_store 	decision_no[2] 	130748
scalar abilene_cost_network.node[2].content_store 	decision_ratio[2] 	0.0057564351165355
scalar abilene_cost_network.node[2].content_store 	correction_factor[2] 	0.0027225701061802
scalar abilene_cost_network.node[2].content_store 	xi[2] 	1
scalar abilene_cost_network.node[3].core_layer 	interests[3] 	153765
scalar abilene_cost_network.node[3].core_layer 	data[3] 	134880
scalar abilene_cost_network.node[3].content_store 	p_hit[3] 	0.12281728611843
scalar abilene_cost_network.node[3].content_store 	hits[3] 	18885
scalar abilene_cost_network.node[3].content_store 	misses[3] 	134880
scalar abilene_cost_network.node[3].content_store 	decision_yes[3] 	798
scalar abilene_cost_network.node[3].content_store 	decision_no[3] 	134082
scalar abilene_cost_network.node[3].content_store 	decision_ratio[3] 	0.0059163701067616
scalar abilene_cost_network.node[3].content_store 	correction_factor[3] 	0.0027225701061802
scalar abilene_cost_network.node[3].content_store 	xi[3] 	1
scalar abilene_cost_network.node[4].core_layer 	interests[4] 	115023
scalar abilene_cost_network.node[4].core_layer 	data[4] 	108331
scalar abilene_cost_network.node[4].content_store 	p_hit[4] 	0.058170974500752
scalar abilene_cost_network.node[4].content_store 	hits[4] 	6691
scalar abilene_cost_network.node[4].content_store 	misses[4] 	108332
scalar abilene_cost_network.node[4].content_store 	decision_yes[4] 	686
scalar abilene_cost_network.node[4].content_store 	decision_no[4] 	107645
scalar abilene_cost_network.node[4].content_store 	decision_ratio[4] 	0.006332444083411
scalar abilene_cost_network.node[4].content_store 	correction_factor[4] 	0.0027225701061802
scalar abilene_cost_network.node[4].content_store 	xi[4] 	1
scalar abilene_cost_network.node[5].core_layer 	interests[5] 	179928
scalar abilene_cost_network.node[5].core_layer 	data[5] 	170007
scalar abilene_cost_network.node[5].content_store 	p_hit[5] 	0.040894135431951
scalar abilene_cost_network.node[5].content_store 	hits[5] 	7358
scalar abilene_cost_network.node[5].content_store 	misses[5] 	172570
scalar abilene_cost_network.node[5].content_store 	decision_yes[5] 	728
scalar abilene_cost_network.node[5].content_store 	decision_no[5] 	169279
scalar abilene_cost_network.node[5].content_store 	decision_ratio[5] 	0.004282176616257
scalar abilene_cost_network.node[5].content_store 	correction_factor[5] 	0.0027225701061802
scalar abilene_cost_network.node[5].content_store 	xi[5] 	1
scalar abilene_cost_network.node[6].core_layer 	interests[6] 	54985
scalar abilene_cost_network.node[6].core_layer 	data[6] 	49553
scalar abilene_cost_network.node[6].content_store 	p_hit[6] 	0.098790579248886
scalar abilene_cost_network.node[6].content_store 	hits[6] 	5432
scalar abilene_cost_network.node[6].content_store 	misses[6] 	49553
scalar abilene_cost_network.node[6].content_store 	decision_yes[6] 	85
scalar abilene_cost_network.node[6].content_store 	decision_no[6] 	49468
scalar abilene_cost_network.node[6].content_store 	decision_ratio[6] 	0.0017153350957561
scalar abilene_cost_network.node[6].content_store 	correction_factor[6] 	0.0027225701061802
scalar abilene_cost_network.node[6].content_store 	xi[6] 	1
scalar abilene_cost_network.node[7].core_layer 	interests[7] 	139700
scalar abilene_cost_network.node[7].core_layer 	data[7] 	89232
scalar abilene_cost_network.node[7].content_store 	p_hit[7] 	0.36125984251969
scalar abilene_cost_network.node[7].content_store 	hits[7] 	50468
scalar abilene_cost_network.node[7].content_store 	misses[7] 	89232
scalar abilene_cost_network.node[7].content_store 	decision_yes[7] 	260
scalar abilene_cost_network.node[7].content_store 	decision_no[7] 	88972
scalar abilene_cost_network.node[7].content_store 	decision_ratio[7] 	0.0029137529137529
scalar abilene_cost_network.node[7].content_store 	correction_factor[7] 	0.0027225701061802
scalar abilene_cost_network.node[7].content_store 	xi[7] 	1
scalar abilene_cost_network.node[8].core_layer 	interests[8] 	50432
scalar abilene_cost_network.node[8].core_layer 	data[8] 	46679
scalar abilene_cost_network.node[8].content_store 	p_hit[8] 	0.07441703680203
scalar abilene_cost_network.node[8].content_store 	hits[8] 	3753
scalar abilene_cost_network.node[8].content_store 	misses[8] 	46679
scalar abilene_cost_network.node[8].content_store 	decision_yes[8] 	89
scalar abilene_cost_network.node[8].content_store 	decision_no[8] 	46590
scalar abilene_cost_network.node[8].content_store 	decision_ratio[8] 	0.0019066389597035
scalar abilene_cost_network.node[8].content_store 	correction_factor[8] 	0.0027225701061802
scalar abilene_cost_network.node[8].content_store 	xi[8] 	1
scalar abilene_cost_network.node[9].core_layer 	interests[9] 	180234
scalar abilene_cost_network.node[9].core_layer 	data[9] 	151185
scalar abilene_cost_network.node[9].content_store 	p_hit[9] 	0.15783370507229
scalar abilene_cost_network.node[9].content_store 	hits[9] 	28447
scalar abilene_cost_network.node[9].content_store 	misses[9] 	151787
scalar abilene_cost_network.node[9].content_store 	decision_yes[9] 	857
scalar abilene_cost_network.node[9].content_store 	decision_no[9] 	150328
scalar abilene_cost_network.node[9].content_store 	decision_ratio[9] 	0.0056685517743162
scalar abilene_cost_network.node[9].content_store 	correction_factor[9] 	0.0027225701061802
scalar abilene_cost_network.node[9].content_store 	xi[9] 	1
scalar abilene_cost_network.node[10].core_layer 	interests[10] 	212590
scalar abilene_cost_network.node[10].core_layer 	data[10] 	203973
scalar abilene_cost_network.node[10].content_store 	p_hit[10] 	0.040533421139282
scalar abilene_cost_network.node[10].content_store 	hits[10] 	8617
scalar abilene_cost_network.node[10].content_store 	misses[10] 	203973
scalar abilene_cost_network.node[10].content_store 	decision_yes[10] 	718
scalar abilene_cost_network.node[10].content_store 	decision_no[10] 	203255
scalar abilene_cost_network.node[10].content_store 	decision_ratio[10] 	0.0035200737352493
scalar abilene_cost_network.node[10].content_store 	correction_factor[10] 	0.0027225701061802
scalar abilene_cost_network.node[10].content_store 	xi[10] 	1
scalar abilene_cost_network.node[11].core_layer 	interests[11] 	168253
scalar abilene_cost_network.node[11].core_layer 	repo_load[11] 	168253
scalar abilene_cost_network.node[11].core_layer 	data[11] 	0
scalar abilene_cost_network.node[11].content_store 	p_hit[11] 	0
scalar abilene_cost_network.node[11].content_store 	hits[11] 	0
scalar abilene_cost_network.node[11].content_store 	misses[11] 	168253
scalar abilene_cost_network.node[11].content_store 	decision_yes[11] 	0
scalar abilene_cost_network.node[11].content_store 	decision_no[11] 	168253
scalar abilene_cost_network.node[11].content_store 	decision_ratio[11] 	0
scalar abilene_cost_network.node[12].core_layer 	interests[12] 	89232
scalar abilene_cost_network.node[12].core_layer 	repo_load[12] 	89232
scalar abilene_cost_network.node[12].core_layer 	data[12] 	0
scalar abilene_cost_network.node[12].content_store 	p_hit[12] 	0
scalar abilene_cost_network.node[12].content_store 	hits[12] 	0
scalar abilene_cost_network.node[12].content_store 	misses[12] 	89232
scalar abilene_cost_network.node[12].content_store 	decision_yes[12] 	0
scalar abilene_cost_network.node[12].content_store 	decision_no[12] 	89232
scalar abilene_cost_network.node[12].content_store 	decision_ratio[12] 	0
scalar abilene_cost_network.node[13].core_layer 	interests[13] 	83837
scalar abilene_cost_network.node[13].core_layer 	repo_load[13] 	83837
scalar abilene_cost_network.node[13].core_layer 	data[13] 	0
scalar abilene_cost_network.node[13].content_store 	p_hit[13] 	0
scalar abilene_cost_network.node[13].content_store 	hits[13] 	0
scalar abilene_cost_network.node[13].content_store 	misses[13] 	83837
scalar abilene_cost_network.node[13].content_store 	decision_yes[13] 	0
scalar abilene_cost_network.node[13].content_store 	decision_no[13] 	83837
scalar abilene_cost_network.node[13].content_store 	decision_ratio[13] 	0
scalar abilene_cost_network.client[0] 	hdistance[0] 	2.9959331579449
scalar abilene_cost_network.client[0] 	downloads[0] 	178271
scalar abilene_cost_network.client[0] 	avg_time[0] 	0.012905391576
scalar abilene_cost_network.client[0] 	interests_sent[0] 	180370
scalar abilene_cost_network.client[5] 	hdistance[5] 	4.4132946184422
scalar abilene_cost_network.client[5] 	downloads[5] 	177365
scalar abilene_cost_network.client[5] 	avg_time[5] 	0.016772847827
scalar abilene_cost_network.client[5] 	interests_sent[5] 	179928
scalar abilene_cost_network.client[9] 	hdistance[9] 	2.5674267391111
scalar abilene_cost_network.client[9] 	downloads[9] 	179632
scalar abilene_cost_network.client[9] 	avg_time[9] 	0.009967376462
scalar abilene_cost_network.client[9] 	interests_sent[9] 	180234
