version 2
run General-2495-20140423-19:35:00-28580
attr D costprob0.01
attr F nrr
attr R lru
attr a 0
attr configname General
attr csize 2
attr ctlg 10^3
attr datetime 20140423-19:35:00
attr experiment General
attr inifile omnetpp.ini
attr iterationvars "$net=simple_scenario, $rep=7, $priceratiovalue=10, $a=0, $ctlg=10^3, $F=nrr, $ttl=1000, $D=costprob0.01, $R=lru, $csize=2"
attr iterationvars2 "$net=simple_scenario, $rep=7, $priceratiovalue=10, $a=0, $ctlg=10^3, $F=nrr, $ttl=1000, $D=costprob0.01, $R=lru, $csize=2, $repetition=0"
attr measurement "$net=simple_scenario, $rep=7, $priceratiovalue=10, $a=0, $ctlg=10^3, $F=nrr, $ttl=1000, $D=costprob0.01, $R=lru, $csize=2"
attr net simple_scenario
attr network networks.${net=simple_scenario}_network
attr priceratiovalue 10
attr processid 28580
attr rep 7
attr repetition 0
attr replication #0
attr resultdir results
attr runnumber 2495
attr seedset 7
attr ttl 1000

scalar . 	a 	0
scalar . 	csize 	2
scalar . 	priceratiovalue 	10
scalar . 	rep 	7
scalar . 	ttl 	1000
scalar simple_scenario_network.content_distribution 	repo-0 	3
scalar simple_scenario_network.content_distribution 	repo-1 	4
scalar simple_scenario_network.content_distribution 	client-0 	0
scalar simple_scenario_network.content_distribution 	repo-0_card 	505
scalar simple_scenario_network.content_distribution 	repo-1_card 	495
scalar simple_scenario_network.statistics 	p_hit 	0.0019598336277728
scalar simple_scenario_network.statistics 	interests 	107662.2
scalar simple_scenario_network.statistics 	data 	71681.8
scalar simple_scenario_network.statistics 	hdistance 	2.9863814743583
scalar simple_scenario_network.statistics 	avg_time 	0.001999782311
scalar simple_scenario_network.statistics 	downloads 	179902
scalar simple_scenario_network.statistics 	total_cost 	88416
scalar simple_scenario_network.node[0].core_layer 	interests[0] 	179902
scalar simple_scenario_network.node[0].core_layer 	data[0] 	179562
scalar simple_scenario_network.node[0].core_layer 	repo_int[0] 	178847
scalar simple_scenario_network.node[0].content_store 	p_hit[0] 	0.0018899178441596
scalar simple_scenario_network.node[0].content_store 	hits[0] 	340
scalar simple_scenario_network.node[0].content_store 	misses[0] 	179562
scalar simple_scenario_network.node[1].core_layer 	interests[1] 	91026
scalar simple_scenario_network.node[1].core_layer 	data[1] 	90654
scalar simple_scenario_network.node[1].content_store 	p_hit[1] 	0.0040867444466416
scalar simple_scenario_network.node[1].content_store 	hits[1] 	372
scalar simple_scenario_network.node[1].content_store 	misses[1] 	90654
scalar simple_scenario_network.node[2].core_layer 	interests[2] 	88536
scalar simple_scenario_network.node[2].core_layer 	data[2] 	88193
scalar simple_scenario_network.node[2].content_store 	p_hit[2] 	0.0038741302972802
scalar simple_scenario_network.node[2].content_store 	hits[2] 	343
scalar simple_scenario_network.node[2].content_store 	misses[2] 	88193
scalar simple_scenario_network.node[3].core_layer 	interests[3] 	90654
scalar simple_scenario_network.node[3].core_layer 	repo_load[3] 	90654
scalar simple_scenario_network.node[3].core_layer 	data[3] 	0
scalar simple_scenario_network.node[3].content_store 	p_hit[3] 	0
scalar simple_scenario_network.node[3].content_store 	hits[3] 	0
scalar simple_scenario_network.node[3].content_store 	misses[3] 	90654
scalar simple_scenario_network.node[4].core_layer 	interests[4] 	88193
scalar simple_scenario_network.node[4].core_layer 	repo_load[4] 	88193
scalar simple_scenario_network.node[4].core_layer 	data[4] 	0
scalar simple_scenario_network.node[4].content_store 	p_hit[4] 	0
scalar simple_scenario_network.node[4].content_store 	hits[4] 	0
scalar simple_scenario_network.node[4].content_store 	misses[4] 	88193
scalar simple_scenario_network.client[0] 	hdistance[0] 	2.9863814743583
scalar simple_scenario_network.client[0] 	downloads[0] 	179902
scalar simple_scenario_network.client[0] 	avg_time[0] 	0.001999782311
