version 2
run General-15-20140625-18:17:19-12194
attr D costprobprodcorr0.01
attr F nrr
attr R lru
attr a 1
attr configname General
attr csize 1e3
attr ctlg 1e5
attr datetime 20140625-18:17:19
attr experiment General
attr inifile omnetpp.ini
attr iterationvars "$net=abilene_cost, $rep=1, $priceratiovalue=10, $weights=0.333_0.333_0.334, $lambda=100, $a=1, $ctlg=1e5, $F=nrr, $ttl=1000, $D=costprobprodcorr0.01, $xi=0.075, $R=lru, $csize=1e3, $pricebits=0, $mytime=1800"
attr iterationvars2 "$net=abilene_cost, $rep=1, $priceratiovalue=10, $weights=0.333_0.333_0.334, $lambda=100, $a=1, $ctlg=1e5, $F=nrr, $ttl=1000, $D=costprobprodcorr0.01, $xi=0.075, $R=lru, $csize=1e3, $pricebits=0, $mytime=1800, $repetition=0"
attr lambda 100
attr measurement "$net=abilene_cost, $rep=1, $priceratiovalue=10, $weights=0.333_0.333_0.334, $lambda=100, $a=1, $ctlg=1e5, $F=nrr, $ttl=1000, $D=costprobprodcorr0.01, $xi=0.075, $R=lru, $csize=1e3, $pricebits=0, $mytime=1800"
attr mytime 1800
attr net abilene_cost
attr network "networks.${net=geant_cost, abilene_cost}_network"
attr pricebits 0
attr priceratiovalue 10
attr processid 12194
attr rep 1
attr repetition 0
attr replication #0
attr resultdir results
attr runnumber 15
attr seedset 1
attr ttl 1000
attr weights 0.333_0.333_0.334
attr xi 0.075

scalar . 	a 	1
scalar . 	csize 	1e3
scalar . 	ctlg 	1e5
scalar . 	lambda 	100
scalar . 	mytime 	1800
scalar . 	pricebits 	0
scalar . 	priceratiovalue 	10
scalar . 	rep 	1
scalar . 	ttl 	1000
scalar . 	xi 	0.075
scalar abilene_cost_network.content_distribution 	repo-0 	11
scalar abilene_cost_network.content_distribution 	repo-1 	12
scalar abilene_cost_network.content_distribution 	repo-2 	13
scalar abilene_cost_network.content_distribution 	client-0 	5
scalar abilene_cost_network.content_distribution 	client-1 	0
scalar abilene_cost_network.content_distribution 	client-2 	9
scalar abilene_cost_network.content_distribution 	repo-0_card 	33396
scalar abilene_cost_network.content_distribution 	repo-1_card 	33039
scalar abilene_cost_network.content_distribution 	repo-2_card 	33565
scalar abilene_cost_network.statistics 	repo_popularity[0] 	0.28686251265602
scalar abilene_cost_network.statistics 	repo_popularity[1] 	0.2886063426465
scalar abilene_cost_network.statistics 	repo_popularity[2] 	0.42453114469748
scalar abilene_cost_network.statistics 	stabilization_time 	473.5
scalar abilene_cost_network.node[1].face$o[4].channel 	price[1] 	0
scalar abilene_cost_network.node[1].face$o[4].channel 	represented_price[1] 	0
scalar abilene_cost_network.node[7].face$o[4].channel 	price[7] 	0
scalar abilene_cost_network.node[7].face$o[4].channel 	represented_price[7] 	0
scalar abilene_cost_network.node[10].face$o[4].channel 	price[10] 	0
scalar abilene_cost_network.node[10].face$o[4].channel 	represented_price[10] 	0
scalar abilene_cost_network.node[11].face$o[1].channel 	price[11] 	0
scalar abilene_cost_network.node[11].face$o[1].channel 	represented_price[11] 	0
scalar abilene_cost_network.node[12].face$o[1].channel 	price[12] 	1
scalar abilene_cost_network.node[12].face$o[1].channel 	represented_price[12] 	1
scalar abilene_cost_network.node[13].face$o[1].channel 	price[13] 	10
scalar abilene_cost_network.node[13].face$o[1].channel 	represented_price[13] 	10
scalar abilene_cost_network.statistics 	p_hit 	0.11170204829524
scalar abilene_cost_network.statistics 	interests 	148405.64285714
scalar abilene_cost_network.statistics 	data 	109879.71428571
scalar abilene_cost_network.statistics 	hdistance 	3.4607670736218
scalar abilene_cost_network.statistics 	avg_time 	0.015120887277
scalar abilene_cost_network.statistics 	downloads 	531203
scalar abilene_cost_network.statistics 	total_cost 	814366
scalar abilene_cost_network.statistics 	total_replicas 	100000
scalar abilene_cost_network.statistics 	inner_hit 	0.43692900830756
scalar abilene_cost_network.statistics 	interests_sent 	539371
scalar abilene_cost_network.node[0].core_layer 	interests[0] 	189975
scalar abilene_cost_network.node[0].core_layer 	data[0] 	169980
scalar abilene_cost_network.node[0].core_layer 	repo_int[0] 	299105
scalar abilene_cost_network.node[0].content_store 	p_hit[0] 	0.093143834715094
scalar abilene_cost_network.node[0].content_store 	hits[0] 	17695
scalar abilene_cost_network.node[0].content_store 	misses[0] 	172280
scalar abilene_cost_network.node[0].content_store 	decision_yes[0] 	740
scalar abilene_cost_network.node[0].content_store 	decision_no[0] 	169240
scalar abilene_cost_network.node[0].content_store 	decision_ratio[0] 	0.0043534533474526
scalar abilene_cost_network.node[0].content_store 	correction_factor[0] 	0.013699385593096
scalar abilene_cost_network.node[0].content_store 	xi[0] 	0.075
scalar abilene_cost_network.node[1].core_layer 	interests[1] 	268210
scalar abilene_cost_network.node[1].core_layer 	data[1] 	183336
scalar abilene_cost_network.node[1].content_store 	p_hit[1] 	0.31644979680101
scalar abilene_cost_network.node[1].content_store 	hits[1] 	84875
scalar abilene_cost_network.node[1].content_store 	misses[1] 	183335
scalar abilene_cost_network.node[1].content_store 	decision_yes[1] 	1551
scalar abilene_cost_network.node[1].content_store 	decision_no[1] 	181785
scalar abilene_cost_network.node[1].content_store 	decision_ratio[1] 	0.0084598769472444
scalar abilene_cost_network.node[1].content_store 	correction_factor[1] 	0.013699385593096
scalar abilene_cost_network.node[1].content_store 	xi[1] 	0.075
scalar abilene_cost_network.node[2].core_layer 	interests[2] 	178501
scalar abilene_cost_network.node[2].core_layer 	data[2] 	159291
scalar abilene_cost_network.node[2].content_store 	p_hit[2] 	0.10754561599095
scalar abilene_cost_network.node[2].content_store 	hits[2] 	19197
scalar abilene_cost_network.node[2].content_store 	misses[2] 	159304
scalar abilene_cost_network.node[2].content_store 	decision_yes[2] 	693
scalar abilene_cost_network.node[2].content_store 	decision_no[2] 	158598
scalar abilene_cost_network.node[2].content_store 	decision_ratio[2] 	0.0043505282784338
scalar abilene_cost_network.node[2].content_store 	correction_factor[2] 	0.013699385593096
scalar abilene_cost_network.node[2].content_store 	xi[2] 	0.075
scalar abilene_cost_network.node[3].core_layer 	interests[3] 	169634
scalar abilene_cost_network.node[3].core_layer 	data[3] 	151258
scalar abilene_cost_network.node[3].content_store 	p_hit[3] 	0.10833913012722
scalar abilene_cost_network.node[3].content_store 	hits[3] 	18378
scalar abilene_cost_network.node[3].content_store 	misses[3] 	151256
scalar abilene_cost_network.node[3].content_store 	decision_yes[3] 	714
scalar abilene_cost_network.node[3].content_store 	decision_no[3] 	150544
scalar abilene_cost_network.node[3].content_store 	decision_ratio[3] 	0.0047204114823679
scalar abilene_cost_network.node[3].content_store 	correction_factor[3] 	0.013699385593096
scalar abilene_cost_network.node[3].content_store 	xi[3] 	0.075
scalar abilene_cost_network.node[4].core_layer 	interests[4] 	127602
scalar abilene_cost_network.node[4].core_layer 	data[4] 	120905
scalar abilene_cost_network.node[4].content_store 	p_hit[4] 	0.052499177128885
scalar abilene_cost_network.node[4].content_store 	hits[4] 	6699
scalar abilene_cost_network.node[4].content_store 	misses[4] 	120903
scalar abilene_cost_network.node[4].content_store 	decision_yes[4] 	376
scalar abilene_cost_network.node[4].content_store 	decision_no[4] 	120529
scalar abilene_cost_network.node[4].content_store 	decision_ratio[4] 	0.0031098796575824
scalar abilene_cost_network.node[4].content_store 	correction_factor[4] 	0.013699385593096
scalar abilene_cost_network.node[4].content_store 	xi[4] 	0.075
scalar abilene_cost_network.node[5].core_layer 	interests[5] 	186933
scalar abilene_cost_network.node[5].core_layer 	data[5] 	168518
scalar abilene_cost_network.node[5].content_store 	p_hit[5] 	0.08043523615413
scalar abilene_cost_network.node[5].content_store 	hits[5] 	15036
scalar abilene_cost_network.node[5].content_store 	misses[5] 	171897
scalar abilene_cost_network.node[5].content_store 	decision_yes[5] 	701
scalar abilene_cost_network.node[5].content_store 	decision_no[5] 	167817
scalar abilene_cost_network.node[5].content_store 	decision_ratio[5] 	0.0041597930191434
scalar abilene_cost_network.node[5].content_store 	correction_factor[5] 	0.013699385593096
scalar abilene_cost_network.node[5].content_store 	xi[5] 	0.075
scalar abilene_cost_network.node[6].core_layer 	interests[6] 	53362
scalar abilene_cost_network.node[6].core_layer 	data[6] 	46378
scalar abilene_cost_network.node[6].content_store 	p_hit[6] 	0.13087965218695
scalar abilene_cost_network.node[6].content_store 	hits[6] 	6984
scalar abilene_cost_network.node[6].content_store 	misses[6] 	46378
scalar abilene_cost_network.node[6].content_store 	decision_yes[6] 	319
scalar abilene_cost_network.node[6].content_store 	decision_no[6] 	46059
scalar abilene_cost_network.node[6].content_store 	decision_ratio[6] 	0.0068782612445556
scalar abilene_cost_network.node[6].content_store 	correction_factor[6] 	0.013699385593096
scalar abilene_cost_network.node[6].content_store 	xi[6] 	0.075
scalar abilene_cost_network.node[7].core_layer 	interests[7] 	116836
scalar abilene_cost_network.node[7].core_layer 	data[7] 	87012
scalar abilene_cost_network.node[7].content_store 	p_hit[7] 	0.25524667054675
scalar abilene_cost_network.node[7].content_store 	hits[7] 	29822
scalar abilene_cost_network.node[7].content_store 	misses[7] 	87014
scalar abilene_cost_network.node[7].content_store 	decision_yes[7] 	942
scalar abilene_cost_network.node[7].content_store 	decision_no[7] 	86070
scalar abilene_cost_network.node[7].content_store 	decision_ratio[7] 	0.010826092952696
scalar abilene_cost_network.node[7].content_store 	correction_factor[7] 	0.013699385593096
scalar abilene_cost_network.node[7].content_store 	xi[7] 	0.075
scalar abilene_cost_network.node[8].core_layer 	interests[8] 	65731
scalar abilene_cost_network.node[8].core_layer 	data[8] 	59182
scalar abilene_cost_network.node[8].content_store 	p_hit[8] 	0.099633354125146
scalar abilene_cost_network.node[8].content_store 	hits[8] 	6549
scalar abilene_cost_network.node[8].content_store 	misses[8] 	59182
scalar abilene_cost_network.node[8].content_store 	decision_yes[8] 	306
scalar abilene_cost_network.node[8].content_store 	decision_no[8] 	58876
scalar abilene_cost_network.node[8].content_store 	decision_ratio[8] 	0.0051704910276773
scalar abilene_cost_network.node[8].content_store 	correction_factor[8] 	0.013699385593096
scalar abilene_cost_network.node[8].content_store 	xi[8] 	0.075
scalar abilene_cost_network.node[9].core_layer 	interests[9] 	192382
scalar abilene_cost_network.node[9].core_layer 	data[9] 	170164
scalar abilene_cost_network.node[9].content_store 	p_hit[9] 	0.10255117422628
scalar abilene_cost_network.node[9].content_store 	hits[9] 	19729
scalar abilene_cost_network.node[9].content_store 	misses[9] 	172653
scalar abilene_cost_network.node[9].content_store 	decision_yes[9] 	724
scalar abilene_cost_network.node[9].content_store 	decision_no[9] 	169440
scalar abilene_cost_network.node[9].content_store 	decision_ratio[9] 	0.0042547189769869
scalar abilene_cost_network.node[9].content_store 	correction_factor[9] 	0.013699385593096
scalar abilene_cost_network.node[9].content_store 	xi[9] 	0.075
scalar abilene_cost_network.node[10].core_layer 	interests[10] 	229408
scalar abilene_cost_network.node[10].core_layer 	data[10] 	222292
scalar abilene_cost_network.node[10].content_store 	p_hit[10] 	0.031023329613614
scalar abilene_cost_network.node[10].content_store 	hits[10] 	7117
scalar abilene_cost_network.node[10].content_store 	misses[10] 	222291
scalar abilene_cost_network.node[10].content_store 	decision_yes[10] 	386
scalar abilene_cost_network.node[10].content_store 	decision_no[10] 	221906
scalar abilene_cost_network.node[10].content_store 	decision_ratio[10] 	0.0017364547532075
scalar abilene_cost_network.node[10].content_store 	correction_factor[10] 	0.013699385593096
scalar abilene_cost_network.node[10].content_store 	xi[10] 	0.075
scalar abilene_cost_network.node[11].core_layer 	interests[11] 	154231
scalar abilene_cost_network.node[11].core_layer 	repo_load[11] 	154231
scalar abilene_cost_network.node[11].core_layer 	data[11] 	0
scalar abilene_cost_network.node[11].content_store 	p_hit[11] 	0
scalar abilene_cost_network.node[11].content_store 	hits[11] 	0
scalar abilene_cost_network.node[11].content_store 	misses[11] 	154231
scalar abilene_cost_network.node[11].content_store 	decision_yes[11] 	0
scalar abilene_cost_network.node[11].content_store 	decision_no[11] 	154231
scalar abilene_cost_network.node[11].content_store 	decision_ratio[11] 	0
scalar abilene_cost_network.node[12].core_layer 	interests[12] 	70486
scalar abilene_cost_network.node[12].core_layer 	repo_load[12] 	70486
scalar abilene_cost_network.node[12].core_layer 	data[12] 	0
scalar abilene_cost_network.node[12].content_store 	p_hit[12] 	0
scalar abilene_cost_network.node[12].content_store 	hits[12] 	0
scalar abilene_cost_network.node[12].content_store 	misses[12] 	70486
scalar abilene_cost_network.node[12].content_store 	decision_yes[12] 	0
scalar abilene_cost_network.node[12].content_store 	decision_no[12] 	70486
scalar abilene_cost_network.node[12].content_store 	decision_ratio[12] 	0
scalar abilene_cost_network.node[13].core_layer 	interests[13] 	74388
scalar abilene_cost_network.node[13].core_layer 	repo_load[13] 	74388
scalar abilene_cost_network.node[13].core_layer 	data[13] 	0
scalar abilene_cost_network.node[13].content_store 	p_hit[13] 	0
scalar abilene_cost_network.node[13].content_store 	hits[13] 	0
scalar abilene_cost_network.node[13].content_store 	misses[13] 	74388
scalar abilene_cost_network.node[13].content_store 	decision_yes[13] 	0
scalar abilene_cost_network.node[13].content_store 	decision_no[13] 	74388
scalar abilene_cost_network.node[13].content_store 	decision_ratio[13] 	0
scalar abilene_cost_network.client[0] 	hdistance[0] 	2.9394404438673
scalar abilene_cost_network.client[0] 	downloads[0] 	177891
scalar abilene_cost_network.client[0] 	avg_time[0] 	0.013620482491
scalar abilene_cost_network.client[0] 	interests_sent[0] 	180191
scalar abilene_cost_network.client[5] 	hdistance[5] 	4.6145543550316
scalar abilene_cost_network.client[5] 	downloads[5] 	176497
scalar abilene_cost_network.client[5] 	avg_time[5] 	0.019020425819
scalar abilene_cost_network.client[5] 	interests_sent[5] 	179876
scalar abilene_cost_network.client[9] 	hdistance[9] 	2.8283064219665
scalar abilene_cost_network.client[9] 	downloads[9] 	176815
scalar abilene_cost_network.client[9] 	avg_time[9] 	0.012721753521
scalar abilene_cost_network.client[9] 	interests_sent[9] 	179304
