version 2
run General-0-20140512-16:42:19-30052
attr D costprobprodcorr0.01
attr F spr
attr R lru
attr a 1
attr configname General
attr csize 1e3
attr ctlg 1e5
attr datetime 20140512-16:42:19
attr experiment General
attr inifile omnetpp.ini
attr iterationvars "$net=abilene_cost, $rep=1, $priceratiovalue=10, $weights=0.333_0.333_0.334, $a=1, $ctlg=1e5, $F=spr, $ttl=1000, $D=costprobprodcorr0.01, $xi=0, $R=lru, $csize=1e3"
attr iterationvars2 "$net=abilene_cost, $rep=1, $priceratiovalue=10, $weights=0.333_0.333_0.334, $a=1, $ctlg=1e5, $F=spr, $ttl=1000, $D=costprobprodcorr0.01, $xi=0, $R=lru, $csize=1e3, $repetition=0"
attr measurement "$net=abilene_cost, $rep=1, $priceratiovalue=10, $weights=0.333_0.333_0.334, $a=1, $ctlg=1e5, $F=spr, $ttl=1000, $D=costprobprodcorr0.01, $xi=0, $R=lru, $csize=1e3"
attr net abilene_cost
attr network networks.${net=abilene_cost}_network
attr priceratiovalue 10
attr processid 30052
attr rep 1
attr repetition 0
attr replication #0
attr resultdir results
attr runnumber 0
attr seedset 1
attr ttl 1000
attr weights 0.333_0.333_0.334
attr xi 0

scalar . 	a 	1
scalar . 	csize 	1e3
scalar . 	ctlg 	1e5
scalar . 	priceratiovalue 	10
scalar . 	rep 	1
scalar . 	ttl 	1000
scalar . 	xi 	0
scalar abilene_cost_network.content_distribution 	repo-0 	11
scalar abilene_cost_network.content_distribution 	repo-1 	12
scalar abilene_cost_network.content_distribution 	repo-2 	13
scalar abilene_cost_network.content_distribution 	client-0 	3
scalar abilene_cost_network.content_distribution 	client-1 	7
scalar abilene_cost_network.content_distribution 	client-2 	10
scalar abilene_cost_network.content_distribution 	repo-0_card 	33396
scalar abilene_cost_network.content_distribution 	repo-1_card 	33039
scalar abilene_cost_network.content_distribution 	repo-2_card 	33565
scalar abilene_cost_network.statistics 	p_hit 	0.16942339192418
scalar abilene_cost_network.statistics 	interests 	114076
scalar abilene_cost_network.statistics 	data 	75546.642857143
scalar abilene_cost_network.statistics 	hdistance 	2.458936679285
scalar abilene_cost_network.statistics 	avg_time 	0
scalar abilene_cost_network.statistics 	downloads 	539411
scalar abilene_cost_network.statistics 	total_cost 	1019233
scalar abilene_cost_network.statistics 	total_replicas 	100000
scalar abilene_cost_network.statistics 	interests_sent 	539411
scalar abilene_cost_network.node[0].core_layer 	interests[0] 	101311
scalar abilene_cost_network.node[0].core_layer 	data[0] 	91035
scalar abilene_cost_network.node[0].core_layer 	repo_int[0] 	268831
scalar abilene_cost_network.node[0].content_store 	p_hit[0] 	0.10143024942997
scalar abilene_cost_network.node[0].content_store 	hits[0] 	10276
scalar abilene_cost_network.node[0].content_store 	misses[0] 	91035
scalar abilene_cost_network.node[0].content_store 	decision_yes[0] 	1306
scalar abilene_cost_network.node[0].content_store 	decision_no[0] 	89729
scalar abilene_cost_network.node[0].content_store 	decision_ratio[0] 	0.014346130609106
scalar abilene_cost_network.node[0].content_store 	correction_factor[0] 	0.014992503748126
scalar abilene_cost_network.node[0].content_store 	xi[0] 	0
scalar abilene_cost_network.node[1].core_layer 	interests[1] 	71070
scalar abilene_cost_network.node[1].core_layer 	data[1] 	65402
scalar abilene_cost_network.node[1].content_store 	p_hit[1] 	0.079752356831293
scalar abilene_cost_network.node[1].content_store 	hits[1] 	5668
scalar abilene_cost_network.node[1].content_store 	misses[1] 	65402
scalar abilene_cost_network.node[1].content_store 	decision_yes[1] 	970
scalar abilene_cost_network.node[1].content_store 	decision_no[1] 	64432
scalar abilene_cost_network.node[1].content_store 	decision_ratio[1] 	0.014831350723219
scalar abilene_cost_network.node[1].content_store 	correction_factor[1] 	0.014992503748126
scalar abilene_cost_network.node[1].content_store 	xi[1] 	0
scalar abilene_cost_network.node[2].core_layer 	interests[2] 	71603
scalar abilene_cost_network.node[2].core_layer 	data[2] 	64930
scalar abilene_cost_network.node[2].content_store 	p_hit[2] 	0.093194419228245
scalar abilene_cost_network.node[2].content_store 	hits[2] 	6673
scalar abilene_cost_network.node[2].content_store 	misses[2] 	64930
scalar abilene_cost_network.node[2].content_store 	decision_yes[2] 	954
scalar abilene_cost_network.node[2].content_store 	decision_no[2] 	63976
scalar abilene_cost_network.node[2].content_store 	decision_ratio[2] 	0.014692746034191
scalar abilene_cost_network.node[2].content_store 	correction_factor[2] 	0.014992503748126
scalar abilene_cost_network.node[2].content_store 	xi[2] 	0
scalar abilene_cost_network.node[3].core_layer 	interests[3] 	211633
scalar abilene_cost_network.node[3].core_layer 	data[3] 	142191
scalar abilene_cost_network.node[3].content_store 	p_hit[3] 	0.3281246308468
scalar abilene_cost_network.node[3].content_store 	hits[3] 	69442
scalar abilene_cost_network.node[3].content_store 	misses[3] 	142191
scalar abilene_cost_network.node[3].content_store 	decision_yes[3] 	2079
scalar abilene_cost_network.node[3].content_store 	decision_no[3] 	140112
scalar abilene_cost_network.node[3].content_store 	decision_ratio[3] 	0.014621178555605
scalar abilene_cost_network.node[3].content_store 	correction_factor[3] 	0.014992503748126
scalar abilene_cost_network.node[3].content_store 	xi[3] 	0
scalar abilene_cost_network.node[4].core_layer 	interests[4] 	66373
scalar abilene_cost_network.node[4].core_layer 	data[4] 	59979
scalar abilene_cost_network.node[4].content_store 	p_hit[4] 	0.096334352824191
scalar abilene_cost_network.node[4].content_store 	hits[4] 	6394
scalar abilene_cost_network.node[4].content_store 	misses[4] 	59979
scalar abilene_cost_network.node[4].content_store 	decision_yes[4] 	917
scalar abilene_cost_network.node[4].content_store 	decision_no[4] 	59062
scalar abilene_cost_network.node[4].content_store 	decision_ratio[4] 	0.015288684372864
scalar abilene_cost_network.node[4].content_store 	correction_factor[4] 	0.014992503748126
scalar abilene_cost_network.node[4].content_store 	xi[4] 	0
scalar abilene_cost_network.node[5].core_layer 	interests[5] 	91411
scalar abilene_cost_network.node[5].core_layer 	data[5] 	84303
scalar abilene_cost_network.node[5].content_store 	p_hit[5] 	0.077758694249051
scalar abilene_cost_network.node[5].content_store 	hits[5] 	7108
scalar abilene_cost_network.node[5].content_store 	misses[5] 	84303
scalar abilene_cost_network.node[5].content_store 	decision_yes[5] 	1251
scalar abilene_cost_network.node[5].content_store 	decision_no[5] 	83052
scalar abilene_cost_network.node[5].content_store 	decision_ratio[5] 	0.014839329561226
scalar abilene_cost_network.node[5].content_store 	correction_factor[5] 	0.014992503748126
scalar abilene_cost_network.node[5].content_store 	xi[5] 	0
scalar abilene_cost_network.node[6].core_layer 	interests[6] 	37771
scalar abilene_cost_network.node[6].core_layer 	data[6] 	31432
scalar abilene_cost_network.node[6].content_store 	p_hit[6] 	0.16782716899208
scalar abilene_cost_network.node[6].content_store 	hits[6] 	6339
scalar abilene_cost_network.node[6].content_store 	misses[6] 	31432
scalar abilene_cost_network.node[6].content_store 	decision_yes[6] 	485
scalar abilene_cost_network.node[6].content_store 	decision_no[6] 	30947
scalar abilene_cost_network.node[6].content_store 	decision_ratio[6] 	0.015430134894375
scalar abilene_cost_network.node[6].content_store 	correction_factor[6] 	0.014992503748126
scalar abilene_cost_network.node[6].content_store 	xi[6] 	0
scalar abilene_cost_network.node[7].core_layer 	interests[7] 	217421
scalar abilene_cost_network.node[7].core_layer 	data[7] 	146478
scalar abilene_cost_network.node[7].content_store 	p_hit[7] 	0.32629322834501
scalar abilene_cost_network.node[7].content_store 	hits[7] 	70943
scalar abilene_cost_network.node[7].content_store 	misses[7] 	146478
scalar abilene_cost_network.node[7].content_store 	decision_yes[7] 	2235
scalar abilene_cost_network.node[7].content_store 	decision_no[7] 	144243
scalar abilene_cost_network.node[7].content_store 	decision_ratio[7] 	0.015258264039651
scalar abilene_cost_network.node[7].content_store 	correction_factor[7] 	0.014992503748126
scalar abilene_cost_network.node[7].content_store 	xi[7] 	0
scalar abilene_cost_network.node[8].core_layer 	interests[8] 	108707
scalar abilene_cost_network.node[8].core_layer 	data[8] 	100251
scalar abilene_cost_network.node[8].content_store 	p_hit[8] 	0.077787079028949
scalar abilene_cost_network.node[8].content_store 	hits[8] 	8456
scalar abilene_cost_network.node[8].content_store 	misses[8] 	100251
scalar abilene_cost_network.node[8].content_store 	decision_yes[8] 	1521
scalar abilene_cost_network.node[8].content_store 	decision_no[8] 	98730
scalar abilene_cost_network.node[8].content_store 	decision_ratio[8] 	0.015171918484604
scalar abilene_cost_network.node[8].content_store 	correction_factor[8] 	0.014992503748126
scalar abilene_cost_network.node[8].content_store 	xi[8] 	0
scalar abilene_cost_network.node[9].core_layer 	interests[9] 	137527
scalar abilene_cost_network.node[9].core_layer 	data[9] 	127676
scalar abilene_cost_network.node[9].content_store 	p_hit[9] 	0.071629570920619
scalar abilene_cost_network.node[9].content_store 	hits[9] 	9851
scalar abilene_cost_network.node[9].content_store 	misses[9] 	127676
scalar abilene_cost_network.node[9].content_store 	decision_yes[9] 	1880
scalar abilene_cost_network.node[9].content_store 	decision_no[9] 	125796
scalar abilene_cost_network.node[9].content_store 	decision_ratio[9] 	0.014724772079326
scalar abilene_cost_network.node[9].content_store 	correction_factor[9] 	0.014992503748126
scalar abilene_cost_network.node[9].content_store 	xi[9] 	0
scalar abilene_cost_network.node[10].core_layer 	interests[10] 	213406
scalar abilene_cost_network.node[10].core_layer 	data[10] 	143976
scalar abilene_cost_network.node[10].content_store 	p_hit[10] 	0.32534230527726
scalar abilene_cost_network.node[10].content_store 	hits[10] 	69430
scalar abilene_cost_network.node[10].content_store 	misses[10] 	143976
scalar abilene_cost_network.node[10].content_store 	decision_yes[10] 	2034
scalar abilene_cost_network.node[10].content_store 	decision_no[10] 	141942
scalar abilene_cost_network.node[10].content_store 	decision_ratio[10] 	0.014127354559093
scalar abilene_cost_network.node[10].content_store 	correction_factor[10] 	0.014992503748126
scalar abilene_cost_network.node[10].content_store 	xi[10] 	0
scalar abilene_cost_network.node[11].core_layer 	interests[11] 	91035
scalar abilene_cost_network.node[11].core_layer 	repo_load[11] 	91035
scalar abilene_cost_network.node[11].core_layer 	data[11] 	0
scalar abilene_cost_network.node[11].content_store 	p_hit[11] 	0
scalar abilene_cost_network.node[11].content_store 	hits[11] 	0
scalar abilene_cost_network.node[11].content_store 	misses[11] 	91035
scalar abilene_cost_network.node[11].content_store 	decision_yes[11] 	0
scalar abilene_cost_network.node[11].content_store 	decision_no[11] 	91035
scalar abilene_cost_network.node[11].content_store 	decision_ratio[11] 	0
scalar abilene_cost_network.node[12].core_layer 	interests[12] 	84303
scalar abilene_cost_network.node[12].core_layer 	repo_load[12] 	84303
scalar abilene_cost_network.node[12].core_layer 	data[12] 	0
scalar abilene_cost_network.node[12].content_store 	p_hit[12] 	0
scalar abilene_cost_network.node[12].content_store 	hits[12] 	0
scalar abilene_cost_network.node[12].content_store 	misses[12] 	84303
scalar abilene_cost_network.node[12].content_store 	decision_yes[12] 	0
scalar abilene_cost_network.node[12].content_store 	decision_no[12] 	84303
scalar abilene_cost_network.node[12].content_store 	decision_ratio[12] 	0
scalar abilene_cost_network.node[13].core_layer 	interests[13] 	93493
scalar abilene_cost_network.node[13].core_layer 	repo_load[13] 	93493
scalar abilene_cost_network.node[13].core_layer 	data[13] 	0
scalar abilene_cost_network.node[13].content_store 	p_hit[13] 	0
scalar abilene_cost_network.node[13].content_store 	hits[13] 	0
scalar abilene_cost_network.node[13].content_store 	misses[13] 	93493
scalar abilene_cost_network.node[13].content_store 	decision_yes[13] 	0
scalar abilene_cost_network.node[13].content_store 	decision_no[13] 	93493
scalar abilene_cost_network.node[13].content_store 	decision_ratio[13] 	0
scalar abilene_cost_network.client[3] 	hdistance[3] 	2.5116223619567
scalar abilene_cost_network.client[3] 	downloads[3] 	180342
scalar abilene_cost_network.client[3] 	avg_time[3] 	0
scalar abilene_cost_network.client[3] 	interests_sent[3] 	180342
scalar abilene_cost_network.client[7] 	hdistance[7] 	2.5352635032195
scalar abilene_cost_network.client[7] 	downloads[7] 	179846
scalar abilene_cost_network.client[7] 	avg_time[7] 	0
scalar abilene_cost_network.client[7] 	interests_sent[7] 	179846
scalar abilene_cost_network.client[10] 	hdistance[10] 	2.3299241726787
scalar abilene_cost_network.client[10] 	downloads[10] 	179223
scalar abilene_cost_network.client[10] 	avg_time[10] 	0
scalar abilene_cost_network.client[10] 	interests_sent[10] 	179223
