version 2
run General-16-20140419-16:23:04-7327
attr D costprob0.1
attr F nrr
attr R lru
attr a 1
attr configname General
attr csize 10
attr ctlg 10^6
attr datetime 20140419-16:23:04
attr experiment General
attr inifile omnetpp.ini
attr iterationvars "$net=simple_scenario, $rep=1, $priceratiovalue=1, $a=1, $ctlg=10^6, $F=nrr, $ttl=1000, $D=costprob0.1, $R=lru, $csize=10"
attr iterationvars2 "$net=simple_scenario, $rep=1, $priceratiovalue=1, $a=1, $ctlg=10^6, $F=nrr, $ttl=1000, $D=costprob0.1, $R=lru, $csize=10, $repetition=0"
attr measurement "$net=simple_scenario, $rep=1, $priceratiovalue=1, $a=1, $ctlg=10^6, $F=nrr, $ttl=1000, $D=costprob0.1, $R=lru, $csize=10"
attr net simple_scenario
attr network networks.${net=simple_scenario}_network
attr priceratiovalue 1
attr processid 7327
attr rep 1
attr repetition 0
attr replication #0
attr resultdir results
attr runnumber 16
attr seedset 1
attr ttl 1000

scalar . 	a 	1
scalar . 	csize 	10
scalar . 	priceratiovalue 	1
scalar . 	rep 	1
scalar . 	ttl 	1000
scalar simple_scenario_network.content_distribution 	repo-0 	3
scalar simple_scenario_network.content_distribution 	repo-1 	4
scalar simple_scenario_network.content_distribution 	client-0 	0
scalar simple_scenario_network.content_distribution 	repo-0_card 	500011
scalar simple_scenario_network.content_distribution 	repo-1_card 	499989
scalar simple_scenario_network.statistics 	p_hit 	0.069516572786768
scalar simple_scenario_network.statistics 	interests 	98281.6
scalar simple_scenario_network.statistics 	data 	62242.8
scalar simple_scenario_network.statistics 	hdistance 	2.537523655192
scalar simple_scenario_network.statistics 	avg_time 	0.001998398313
scalar simple_scenario_network.statistics 	downloads 	180193
scalar simple_scenario_network.statistics 	total_cost 	73016
scalar simple_scenario_network.node[0].core_layer 	interests[0] 	180194
scalar simple_scenario_network.node[0].core_layer 	data[0] 	165181
scalar simple_scenario_network.node[0].core_layer 	repo_int[0] 	146033
scalar simple_scenario_network.node[0].content_store 	p_hit[0] 	0.083315759681232
scalar simple_scenario_network.node[0].content_store 	hits[0] 	15013
scalar simple_scenario_network.node[0].content_store 	misses[0] 	165181
scalar simple_scenario_network.node[1].core_layer 	interests[1] 	80647
scalar simple_scenario_network.node[1].core_layer 	data[1] 	72443
scalar simple_scenario_network.node[1].content_store 	p_hit[1] 	0.101727280618
scalar simple_scenario_network.node[1].content_store 	hits[1] 	8204
scalar simple_scenario_network.node[1].content_store 	misses[1] 	72443
scalar simple_scenario_network.node[2].core_layer 	interests[2] 	84534
scalar simple_scenario_network.node[2].core_layer 	data[2] 	73590
scalar simple_scenario_network.node[2].content_store 	p_hit[2] 	0.12946270139825
scalar simple_scenario_network.node[2].content_store 	hits[2] 	10944
scalar simple_scenario_network.node[2].content_store 	misses[2] 	73590
scalar simple_scenario_network.node[3].core_layer 	interests[3] 	72443
scalar simple_scenario_network.node[3].core_layer 	repo_load[3] 	72443
scalar simple_scenario_network.node[3].core_layer 	data[3] 	0
scalar simple_scenario_network.node[3].content_store 	p_hit[3] 	0
scalar simple_scenario_network.node[3].content_store 	hits[3] 	0
scalar simple_scenario_network.node[3].content_store 	misses[3] 	72443
scalar simple_scenario_network.node[4].core_layer 	interests[4] 	73590
scalar simple_scenario_network.node[4].core_layer 	repo_load[4] 	73590
scalar simple_scenario_network.node[4].core_layer 	data[4] 	0
scalar simple_scenario_network.node[4].content_store 	p_hit[4] 	0
scalar simple_scenario_network.node[4].content_store 	hits[4] 	0
scalar simple_scenario_network.node[4].content_store 	misses[4] 	73590
scalar simple_scenario_network.client[0] 	hdistance[0] 	2.537523655192
scalar simple_scenario_network.client[0] 	downloads[0] 	180193
scalar simple_scenario_network.client[0] 	avg_time[0] 	0.001998398313
