version 2
run General-487-20140502-13:09:22-16005
attr D fix0.05
attr F nrr
attr R lru
attr a 1
attr configname General
attr csize 1e3
attr ctlg 1e5
attr datetime 20140502-13:09:22
attr experiment General
attr inifile omnetpp.ini
attr iterationvars "$net=three_caches_scenario_3_links, $rep=4, $priceratiovalue=2, $weights=0.333_0.333_0.334, $a=1, $ctlg=1e5, $F=nrr, $ttl=1000, $D=fix0.05, $xi=1, $R=lru, $csize=1e3"
attr iterationvars2 "$net=three_caches_scenario_3_links, $rep=4, $priceratiovalue=2, $weights=0.333_0.333_0.334, $a=1, $ctlg=1e5, $F=nrr, $ttl=1000, $D=fix0.05, $xi=1, $R=lru, $csize=1e3, $repetition=0"
attr measurement "$net=three_caches_scenario_3_links, $rep=4, $priceratiovalue=2, $weights=0.333_0.333_0.334, $a=1, $ctlg=1e5, $F=nrr, $ttl=1000, $D=fix0.05, $xi=1, $R=lru, $csize=1e3"
attr net three_caches_scenario_3_links
attr network networks.${net=three_caches_scenario_3_links}_network
attr priceratiovalue 2
attr processid 16005
attr rep 4
attr repetition 0
attr replication #0
attr resultdir results
attr runnumber 487
attr seedset 4
attr ttl 1000
attr weights 0.333_0.333_0.334
attr xi 1

scalar . 	a 	1
scalar . 	csize 	1e3
scalar . 	ctlg 	1e5
scalar . 	priceratiovalue 	2
scalar . 	rep 	4
scalar . 	ttl 	1000
scalar . 	xi 	1
scalar three_caches_scenario_3_links_network.content_distribution 	repo-0 	4
scalar three_caches_scenario_3_links_network.content_distribution 	repo-1 	5
scalar three_caches_scenario_3_links_network.content_distribution 	repo-2 	6
scalar three_caches_scenario_3_links_network.content_distribution 	client-0 	0
scalar three_caches_scenario_3_links_network.content_distribution 	repo-0_card 	33584
scalar three_caches_scenario_3_links_network.content_distribution 	repo-1_card 	33055
scalar three_caches_scenario_3_links_network.content_distribution 	repo-2_card 	33361
scalar three_caches_scenario_3_links_network.statistics 	p_hit 	0.2693736218591
scalar three_caches_scenario_3_links_network.statistics 	interests 	51117
scalar three_caches_scenario_3_links_network.statistics 	data 	25400.714285714
scalar three_caches_scenario_3_links_network.statistics 	hdistance 	1.2734342884443
scalar three_caches_scenario_3_links_network.statistics 	avg_time 	0
scalar three_caches_scenario_3_links_network.statistics 	downloads 	180014
scalar three_caches_scenario_3_links_network.statistics 	total_cost 	77439
scalar three_caches_scenario_3_links_network.statistics 	total_replicas 	100000
scalar three_caches_scenario_3_links_network.statistics 	interests_sent 	180014
scalar three_caches_scenario_3_links_network.node[0].core_layer 	interests[0] 	180014
scalar three_caches_scenario_3_links_network.node[0].core_layer 	data[0] 	94178
scalar three_caches_scenario_3_links_network.node[0].core_layer 	repo_int[0] 	83627
scalar three_caches_scenario_3_links_network.node[0].content_store 	p_hit[0] 	0.47682957992156
scalar three_caches_scenario_3_links_network.node[0].content_store 	hits[0] 	85836
scalar three_caches_scenario_3_links_network.node[0].content_store 	misses[0] 	94178
scalar three_caches_scenario_3_links_network.node[0].content_store 	decision_yes[0] 	4739
scalar three_caches_scenario_3_links_network.node[0].content_store 	decision_no[0] 	89439
scalar three_caches_scenario_3_links_network.node[1].core_layer 	interests[1] 	32196
scalar three_caches_scenario_3_links_network.node[1].core_layer 	data[1] 	32196
scalar three_caches_scenario_3_links_network.node[1].content_store 	p_hit[1] 	0
scalar three_caches_scenario_3_links_network.node[1].content_store 	hits[1] 	0
scalar three_caches_scenario_3_links_network.node[1].content_store 	misses[1] 	32196
scalar three_caches_scenario_3_links_network.node[1].content_store 	decision_yes[1] 	0
scalar three_caches_scenario_3_links_network.node[1].content_store 	decision_no[1] 	32196
scalar three_caches_scenario_3_links_network.node[2].core_layer 	interests[2] 	30391
scalar three_caches_scenario_3_links_network.node[2].core_layer 	data[2] 	25423
scalar three_caches_scenario_3_links_network.node[2].content_store 	p_hit[2] 	0.1634694481919
scalar three_caches_scenario_3_links_network.node[2].content_store 	hits[2] 	4968
scalar three_caches_scenario_3_links_network.node[2].content_store 	misses[2] 	25423
scalar three_caches_scenario_3_links_network.node[2].content_store 	decision_yes[2] 	1228
scalar three_caches_scenario_3_links_network.node[2].content_store 	decision_no[2] 	24195
scalar three_caches_scenario_3_links_network.node[3].core_layer 	interests[3] 	31591
scalar three_caches_scenario_3_links_network.node[3].core_layer 	data[3] 	26008
scalar three_caches_scenario_3_links_network.node[3].content_store 	p_hit[3] 	0.17672754898547
scalar three_caches_scenario_3_links_network.node[3].content_store 	hits[3] 	5583
scalar three_caches_scenario_3_links_network.node[3].content_store 	misses[3] 	26008
scalar three_caches_scenario_3_links_network.node[3].content_store 	decision_yes[3] 	1286
scalar three_caches_scenario_3_links_network.node[3].content_store 	decision_no[3] 	24722
scalar three_caches_scenario_3_links_network.node[4].core_layer 	interests[4] 	32196
scalar three_caches_scenario_3_links_network.node[4].core_layer 	repo_load[4] 	32196
scalar three_caches_scenario_3_links_network.node[4].core_layer 	data[4] 	0
scalar three_caches_scenario_3_links_network.node[4].content_store 	p_hit[4] 	0
scalar three_caches_scenario_3_links_network.node[4].content_store 	hits[4] 	0
scalar three_caches_scenario_3_links_network.node[4].content_store 	misses[4] 	32196
scalar three_caches_scenario_3_links_network.node[4].content_store 	decision_yes[4] 	0
scalar three_caches_scenario_3_links_network.node[4].content_store 	decision_no[4] 	32196
scalar three_caches_scenario_3_links_network.node[5].core_layer 	interests[5] 	25423
scalar three_caches_scenario_3_links_network.node[5].core_layer 	repo_load[5] 	25423
scalar three_caches_scenario_3_links_network.node[5].core_layer 	data[5] 	0
scalar three_caches_scenario_3_links_network.node[5].content_store 	p_hit[5] 	0
scalar three_caches_scenario_3_links_network.node[5].content_store 	hits[5] 	0
scalar three_caches_scenario_3_links_network.node[5].content_store 	misses[5] 	25423
scalar three_caches_scenario_3_links_network.node[5].content_store 	decision_yes[5] 	0
scalar three_caches_scenario_3_links_network.node[5].content_store 	decision_no[5] 	25423
scalar three_caches_scenario_3_links_network.node[6].core_layer 	interests[6] 	26008
scalar three_caches_scenario_3_links_network.node[6].core_layer 	repo_load[6] 	26008
scalar three_caches_scenario_3_links_network.node[6].core_layer 	data[6] 	0
scalar three_caches_scenario_3_links_network.node[6].content_store 	p_hit[6] 	0
scalar three_caches_scenario_3_links_network.node[6].content_store 	hits[6] 	0
scalar three_caches_scenario_3_links_network.node[6].content_store 	misses[6] 	26008
scalar three_caches_scenario_3_links_network.node[6].content_store 	decision_yes[6] 	0
scalar three_caches_scenario_3_links_network.node[6].content_store 	decision_no[6] 	26008
scalar three_caches_scenario_3_links_network.client[0] 	hdistance[0] 	1.2734342884443
scalar three_caches_scenario_3_links_network.client[0] 	downloads[0] 	180014
scalar three_caches_scenario_3_links_network.client[0] 	avg_time[0] 	0
scalar three_caches_scenario_3_links_network.client[0] 	interests_sent[0] 	180014
