version 2
run General-73-20140505-21:13:42-2393
attr D costprobprodplain0.01
attr F nrr
attr R lru
attr a 1
attr configname General
attr csize 1e3
attr ctlg 1e5
attr datetime 20140505-21:13:42
attr experiment General
attr inifile omnetpp.ini
attr iterationvars "$net=one_cache_scenario_3_links, $rep=1, $priceratiovalue=2, $weights=0_0.75_0.25, $a=1, $ctlg=1e5, $F=nrr, $ttl=1000, $D=costprobprodplain0.01, $xi=0.5, $R=lru, $csize=1e3"
attr iterationvars2 "$net=one_cache_scenario_3_links, $rep=1, $priceratiovalue=2, $weights=0_0.75_0.25, $a=1, $ctlg=1e5, $F=nrr, $ttl=1000, $D=costprobprodplain0.01, $xi=0.5, $R=lru, $csize=1e3, $repetition=0"
attr measurement "$net=one_cache_scenario_3_links, $rep=1, $priceratiovalue=2, $weights=0_0.75_0.25, $a=1, $ctlg=1e5, $F=nrr, $ttl=1000, $D=costprobprodplain0.01, $xi=0.5, $R=lru, $csize=1e3"
attr net one_cache_scenario_3_links
attr network networks.${net=one_cache_scenario_3_links}_network
attr priceratiovalue 2
attr processid 2393
attr rep 1
attr repetition 0
attr replication #0
attr resultdir results
attr runnumber 73
attr seedset 1
attr ttl 1000
attr weights 0_0.75_0.25
attr xi 0.5

scalar . 	a 	1
scalar . 	csize 	1e3
scalar . 	ctlg 	1e5
scalar . 	priceratiovalue 	2
scalar . 	rep 	1
scalar . 	ttl 	1000
scalar . 	xi 	0.5
scalar one_cache_scenario_3_links_network.content_distribution 	repo-0 	4
scalar one_cache_scenario_3_links_network.content_distribution 	repo-1 	5
scalar one_cache_scenario_3_links_network.content_distribution 	repo-2 	6
scalar one_cache_scenario_3_links_network.content_distribution 	client-0 	0
scalar one_cache_scenario_3_links_network.content_distribution 	repo-0_card 	0
scalar one_cache_scenario_3_links_network.content_distribution 	repo-1_card 	74866
scalar one_cache_scenario_3_links_network.content_distribution 	repo-2_card 	25134
scalar one_cache_scenario_3_links_network.statistics 	p_hit 	0.27614930196521
scalar one_cache_scenario_3_links_network.statistics 	interests 	49598.428571429
scalar one_cache_scenario_3_links_network.statistics 	data 	23934.571428571
scalar one_cache_scenario_3_links_network.statistics 	hdistance 	0.93261785612896
scalar one_cache_scenario_3_links_network.statistics 	avg_time 	0
scalar one_cache_scenario_3_links_network.statistics 	downloads 	179647
scalar one_cache_scenario_3_links_network.statistics 	total_cost 	104257
scalar one_cache_scenario_3_links_network.statistics 	total_replicas 	100000
scalar one_cache_scenario_3_links_network.statistics 	interests_sent 	179647
scalar one_cache_scenario_3_links_network.node[0].core_layer 	interests[0] 	179647
scalar one_cache_scenario_3_links_network.node[0].core_layer 	data[0] 	83771
scalar one_cache_scenario_3_links_network.node[0].core_layer 	repo_int[0] 	83771
scalar one_cache_scenario_3_links_network.node[0].content_store 	p_hit[0] 	0.53369107193552
scalar one_cache_scenario_3_links_network.node[0].content_store 	hits[0] 	95876
scalar one_cache_scenario_3_links_network.node[0].content_store 	misses[0] 	83771
scalar one_cache_scenario_3_links_network.node[0].content_store 	decision_yes[0] 	665
scalar one_cache_scenario_3_links_network.node[0].content_store 	decision_no[0] 	83106
scalar one_cache_scenario_3_links_network.node[0].content_store 	decision_ratio[0] 	0.0079383080063506
scalar one_cache_scenario_3_links_network.node[0].content_store 	correction_factor[0] 	0.0070710678118655
scalar one_cache_scenario_3_links_network.node[0].content_store 	xi[0] 	0.5
scalar one_cache_scenario_3_links_network.node[1].core_layer 	interests[1] 	0
scalar one_cache_scenario_3_links_network.node[1].core_layer 	data[1] 	0
scalar one_cache_scenario_3_links_network.node[1].content_store 	p_hit[1] 	-nan
scalar one_cache_scenario_3_links_network.node[1].content_store 	hits[1] 	0
scalar one_cache_scenario_3_links_network.node[1].content_store 	misses[1] 	0
scalar one_cache_scenario_3_links_network.node[1].content_store 	decision_yes[1] 	0
scalar one_cache_scenario_3_links_network.node[1].content_store 	decision_no[1] 	0
scalar one_cache_scenario_3_links_network.node[1].content_store 	decision_ratio[1] 	0
scalar one_cache_scenario_3_links_network.node[2].core_layer 	interests[2] 	63285
scalar one_cache_scenario_3_links_network.node[2].core_layer 	data[2] 	63285
scalar one_cache_scenario_3_links_network.node[2].content_store 	p_hit[2] 	0
scalar one_cache_scenario_3_links_network.node[2].content_store 	hits[2] 	0
scalar one_cache_scenario_3_links_network.node[2].content_store 	misses[2] 	63285
scalar one_cache_scenario_3_links_network.node[2].content_store 	decision_yes[2] 	0
scalar one_cache_scenario_3_links_network.node[2].content_store 	decision_no[2] 	63285
scalar one_cache_scenario_3_links_network.node[2].content_store 	decision_ratio[2] 	0
scalar one_cache_scenario_3_links_network.node[3].core_layer 	interests[3] 	20486
scalar one_cache_scenario_3_links_network.node[3].core_layer 	data[3] 	20486
scalar one_cache_scenario_3_links_network.node[3].content_store 	p_hit[3] 	0
scalar one_cache_scenario_3_links_network.node[3].content_store 	hits[3] 	0
scalar one_cache_scenario_3_links_network.node[3].content_store 	misses[3] 	20486
scalar one_cache_scenario_3_links_network.node[3].content_store 	decision_yes[3] 	0
scalar one_cache_scenario_3_links_network.node[3].content_store 	decision_no[3] 	20486
scalar one_cache_scenario_3_links_network.node[3].content_store 	decision_ratio[3] 	0
scalar one_cache_scenario_3_links_network.node[4].core_layer 	interests[4] 	0
scalar one_cache_scenario_3_links_network.node[4].core_layer 	data[4] 	0
scalar one_cache_scenario_3_links_network.node[4].content_store 	p_hit[4] 	-nan
scalar one_cache_scenario_3_links_network.node[4].content_store 	hits[4] 	0
scalar one_cache_scenario_3_links_network.node[4].content_store 	misses[4] 	0
scalar one_cache_scenario_3_links_network.node[4].content_store 	decision_yes[4] 	0
scalar one_cache_scenario_3_links_network.node[4].content_store 	decision_no[4] 	0
scalar one_cache_scenario_3_links_network.node[4].content_store 	decision_ratio[4] 	0
scalar one_cache_scenario_3_links_network.node[5].core_layer 	interests[5] 	63285
scalar one_cache_scenario_3_links_network.node[5].core_layer 	repo_load[5] 	63285
scalar one_cache_scenario_3_links_network.node[5].core_layer 	data[5] 	0
scalar one_cache_scenario_3_links_network.node[5].content_store 	p_hit[5] 	0
scalar one_cache_scenario_3_links_network.node[5].content_store 	hits[5] 	0
scalar one_cache_scenario_3_links_network.node[5].content_store 	misses[5] 	63285
scalar one_cache_scenario_3_links_network.node[5].content_store 	decision_yes[5] 	0
scalar one_cache_scenario_3_links_network.node[5].content_store 	decision_no[5] 	63285
scalar one_cache_scenario_3_links_network.node[5].content_store 	decision_ratio[5] 	0
scalar one_cache_scenario_3_links_network.node[6].core_layer 	interests[6] 	20486
scalar one_cache_scenario_3_links_network.node[6].core_layer 	repo_load[6] 	20486
scalar one_cache_scenario_3_links_network.node[6].core_layer 	data[6] 	0
scalar one_cache_scenario_3_links_network.node[6].content_store 	p_hit[6] 	0
scalar one_cache_scenario_3_links_network.node[6].content_store 	hits[6] 	0
scalar one_cache_scenario_3_links_network.node[6].content_store 	misses[6] 	20486
scalar one_cache_scenario_3_links_network.node[6].content_store 	decision_yes[6] 	0
scalar one_cache_scenario_3_links_network.node[6].content_store 	decision_no[6] 	20486
scalar one_cache_scenario_3_links_network.node[6].content_store 	decision_ratio[6] 	0
scalar one_cache_scenario_3_links_network.client[0] 	hdistance[0] 	0.93261785612896
scalar one_cache_scenario_3_links_network.client[0] 	downloads[0] 	179647
scalar one_cache_scenario_3_links_network.client[0] 	avg_time[0] 	0
scalar one_cache_scenario_3_links_network.client[0] 	interests_sent[0] 	179647
