version 2
run General-1-20140626-12:33:05-15735
attr D costprobprodcorr0.01
attr F nrr
attr R lru
attr a 1
attr configname General
attr csize 1e3
attr ctlg 1e5
attr datetime 20140626-12:33:05
attr experiment General
attr inifile omnetpp.ini
attr iterationvars "$net=abilene_cost, $rep=1, $priceratiovalue=10, $weights=0.333_0.333_0.334, $lambda=100, $a=1, $ctlg=1e5, $F=nrr, $ttl=1000, $D=costprobprodcorr0.01, $xi=0.50, $R=lru, $csize=1e3, $pricebits=0, $mytime=1800"
attr iterationvars2 "$net=abilene_cost, $rep=1, $priceratiovalue=10, $weights=0.333_0.333_0.334, $lambda=100, $a=1, $ctlg=1e5, $F=nrr, $ttl=1000, $D=costprobprodcorr0.01, $xi=0.50, $R=lru, $csize=1e3, $pricebits=0, $mytime=1800, $repetition=0"
attr lambda 100
attr measurement "$net=abilene_cost, $rep=1, $priceratiovalue=10, $weights=0.333_0.333_0.334, $lambda=100, $a=1, $ctlg=1e5, $F=nrr, $ttl=1000, $D=costprobprodcorr0.01, $xi=0.50, $R=lru, $csize=1e3, $pricebits=0, $mytime=1800"
attr mytime 1800
attr net abilene_cost
attr network networks.${net=abilene_cost}_network
attr pricebits 0
attr priceratiovalue 10
attr processid 15735
attr rep 1
attr repetition 0
attr replication #0
attr resultdir results
attr runnumber 1
attr seedset 1
attr ttl 1000
attr weights 0.333_0.333_0.334
attr xi 0.50

scalar . 	a 	1
scalar . 	csize 	1e3
scalar . 	ctlg 	1e5
scalar . 	lambda 	100
scalar . 	mytime 	1800
scalar . 	pricebits 	0
scalar . 	priceratiovalue 	10
scalar . 	rep 	1
scalar . 	ttl 	1000
scalar . 	xi 	0.50
scalar abilene_cost_network.content_distribution 	repo-0 	11
scalar abilene_cost_network.content_distribution 	repo-1 	12
scalar abilene_cost_network.content_distribution 	repo-2 	13
scalar abilene_cost_network.content_distribution 	client-0 	5
scalar abilene_cost_network.content_distribution 	client-1 	0
scalar abilene_cost_network.content_distribution 	client-2 	9
scalar abilene_cost_network.content_distribution 	repo-0_card 	33396
scalar abilene_cost_network.content_distribution 	repo-1_card 	33039
scalar abilene_cost_network.content_distribution 	repo-2_card 	33565
scalar abilene_cost_network.statistics 	repo_popularity[0] 	0.28686251265602
scalar abilene_cost_network.statistics 	repo_popularity[1] 	0.2886063426465
scalar abilene_cost_network.statistics 	repo_popularity[2] 	0.42453114469748
scalar abilene_cost_network.statistics 	stabilization_time 	1056.8
scalar abilene_cost_network.node[1].face$o[4].channel 	price[1] 	0
scalar abilene_cost_network.node[1].face$o[4].channel 	represented_price[1] 	0
scalar abilene_cost_network.node[7].face$o[4].channel 	price[7] 	0
scalar abilene_cost_network.node[7].face$o[4].channel 	represented_price[7] 	0
scalar abilene_cost_network.node[10].face$o[4].channel 	price[10] 	0
scalar abilene_cost_network.node[10].face$o[4].channel 	represented_price[10] 	0
scalar abilene_cost_network.node[11].face$o[1].channel 	price[11] 	0
scalar abilene_cost_network.node[11].face$o[1].channel 	represented_price[11] 	0
scalar abilene_cost_network.node[12].face$o[1].channel 	price[12] 	1
scalar abilene_cost_network.node[12].face$o[1].channel 	represented_price[12] 	1
scalar abilene_cost_network.node[13].face$o[1].channel 	price[13] 	10
scalar abilene_cost_network.node[13].face$o[1].channel 	represented_price[13] 	10
scalar abilene_cost_network.statistics 	p_hit 	0.10987271535841
scalar abilene_cost_network.statistics 	interests 	151078.71428571
scalar abilene_cost_network.statistics 	data 	112595.5
scalar abilene_cost_network.statistics 	hdistance 	3.534764505923
scalar abilene_cost_network.statistics 	avg_time 	0.015640236706
scalar abilene_cost_network.statistics 	downloads 	530261
scalar abilene_cost_network.statistics 	total_cost 	792754
scalar abilene_cost_network.statistics 	total_replicas 	100000
scalar abilene_cost_network.statistics 	inner_hit 	0.43850669764512
scalar abilene_cost_network.statistics 	interests_sent 	538762
scalar abilene_cost_network.node[0].core_layer 	interests[0] 	187435
scalar abilene_cost_network.node[0].core_layer 	data[0] 	172489
scalar abilene_cost_network.node[0].core_layer 	repo_int[0] 	297738
scalar abilene_cost_network.node[0].content_store 	p_hit[0] 	0.066732467255315
scalar abilene_cost_network.node[0].content_store 	hits[0] 	12508
scalar abilene_cost_network.node[0].content_store 	misses[0] 	174927
scalar abilene_cost_network.node[0].content_store 	decision_yes[0] 	776
scalar abilene_cost_network.node[0].content_store 	decision_no[0] 	171713
scalar abilene_cost_network.node[0].content_store 	decision_ratio[0] 	0.0044988376070358
scalar abilene_cost_network.node[0].content_store 	correction_factor[0] 	0.0071983837345384
scalar abilene_cost_network.node[0].content_store 	xi[0] 	0.5
scalar abilene_cost_network.node[1].core_layer 	interests[1] 	272163
scalar abilene_cost_network.node[1].core_layer 	data[1] 	189276
scalar abilene_cost_network.node[1].content_store 	p_hit[1] 	0.3045417635755
scalar abilene_cost_network.node[1].content_store 	hits[1] 	82885
scalar abilene_cost_network.node[1].content_store 	misses[1] 	189278
scalar abilene_cost_network.node[1].content_store 	decision_yes[1] 	1878
scalar abilene_cost_network.node[1].content_store 	decision_no[1] 	187398
scalar abilene_cost_network.node[1].content_store 	decision_ratio[1] 	0.0099220186394472
scalar abilene_cost_network.node[1].content_store 	correction_factor[1] 	0.0071983837345384
scalar abilene_cost_network.node[1].content_store 	xi[1] 	0.5
scalar abilene_cost_network.node[2].core_layer 	interests[2] 	189426
scalar abilene_cost_network.node[2].core_layer 	data[2] 	180056
scalar abilene_cost_network.node[2].content_store 	p_hit[2] 	0.04877894270058
scalar abilene_cost_network.node[2].content_store 	hits[2] 	9240
scalar abilene_cost_network.node[2].content_store 	misses[2] 	180186
scalar abilene_cost_network.node[2].content_store 	decision_yes[2] 	676
scalar abilene_cost_network.node[2].content_store 	decision_no[2] 	179380
scalar abilene_cost_network.node[2].content_store 	decision_ratio[2] 	0.0037543875238815
scalar abilene_cost_network.node[2].content_store 	correction_factor[2] 	0.0071983837345384
scalar abilene_cost_network.node[2].content_store 	xi[2] 	0.5
scalar abilene_cost_network.node[3].core_layer 	interests[3] 	196526
scalar abilene_cost_network.node[3].core_layer 	data[3] 	150954
scalar abilene_cost_network.node[3].content_store 	p_hit[3] 	0.23187771592563
scalar abilene_cost_network.node[3].content_store 	hits[3] 	45570
scalar abilene_cost_network.node[3].content_store 	misses[3] 	150956
scalar abilene_cost_network.node[3].content_store 	decision_yes[3] 	714
scalar abilene_cost_network.node[3].content_store 	decision_no[3] 	150240
scalar abilene_cost_network.node[3].content_store 	decision_ratio[3] 	0.0047299177232799
scalar abilene_cost_network.node[3].content_store 	correction_factor[3] 	0.0071983837345384
scalar abilene_cost_network.node[3].content_store 	xi[3] 	0.5
scalar abilene_cost_network.node[4].core_layer 	interests[4] 	134856
scalar abilene_cost_network.node[4].core_layer 	data[4] 	131484
scalar abilene_cost_network.node[4].content_store 	p_hit[4] 	0.024997033873168
scalar abilene_cost_network.node[4].content_store 	hits[4] 	3371
scalar abilene_cost_network.node[4].content_store 	misses[4] 	131485
scalar abilene_cost_network.node[4].content_store 	decision_yes[4] 	576
scalar abilene_cost_network.node[4].content_store 	decision_no[4] 	130908
scalar abilene_cost_network.node[4].content_store 	decision_ratio[4] 	0.0043807611572511
scalar abilene_cost_network.node[4].content_store 	correction_factor[4] 	0.0071983837345384
scalar abilene_cost_network.node[4].content_store 	xi[4] 	0.5
scalar abilene_cost_network.node[5].core_layer 	interests[5] 	193721
scalar abilene_cost_network.node[5].core_layer 	data[5] 	168046
scalar abilene_cost_network.node[5].content_store 	p_hit[5] 	0.11582120678708
scalar abilene_cost_network.node[5].content_store 	hits[5] 	22437
scalar abilene_cost_network.node[5].content_store 	misses[5] 	171284
scalar abilene_cost_network.node[5].content_store 	decision_yes[5] 	714
scalar abilene_cost_network.node[5].content_store 	decision_no[5] 	167332
scalar abilene_cost_network.node[5].content_store 	decision_ratio[5] 	0.0042488366280661
scalar abilene_cost_network.node[5].content_store 	correction_factor[5] 	0.0071983837345384
scalar abilene_cost_network.node[5].content_store 	xi[5] 	0.5
scalar abilene_cost_network.node[6].core_layer 	interests[6] 	50903
scalar abilene_cost_network.node[6].core_layer 	data[6] 	45898
scalar abilene_cost_network.node[6].content_store 	p_hit[6] 	0.098343909003399
scalar abilene_cost_network.node[6].content_store 	hits[6] 	5006
scalar abilene_cost_network.node[6].content_store 	misses[6] 	45897
scalar abilene_cost_network.node[6].content_store 	decision_yes[6] 	172
scalar abilene_cost_network.node[6].content_store 	decision_no[6] 	45726
scalar abilene_cost_network.node[6].content_store 	decision_ratio[6] 	0.0037474399755981
scalar abilene_cost_network.node[6].content_store 	correction_factor[6] 	0.0071983837345384
scalar abilene_cost_network.node[6].content_store 	xi[6] 	0.5
scalar abilene_cost_network.node[7].core_layer 	interests[7] 	113528
scalar abilene_cost_network.node[7].core_layer 	data[7] 	87547
scalar abilene_cost_network.node[7].content_store 	p_hit[7] 	0.22885103234444
scalar abilene_cost_network.node[7].content_store 	hits[7] 	25981
scalar abilene_cost_network.node[7].content_store 	misses[7] 	87547
scalar abilene_cost_network.node[7].content_store 	decision_yes[7] 	507
scalar abilene_cost_network.node[7].content_store 	decision_no[7] 	87040
scalar abilene_cost_network.node[7].content_store 	decision_ratio[7] 	0.005791175025986
scalar abilene_cost_network.node[7].content_store 	correction_factor[7] 	0.0071983837345384
scalar abilene_cost_network.node[7].content_store 	xi[7] 	0.5
scalar abilene_cost_network.node[8].core_layer 	interests[8] 	69497
scalar abilene_cost_network.node[8].core_layer 	data[8] 	63848
scalar abilene_cost_network.node[8].content_store 	p_hit[8] 	0.081284084205074
scalar abilene_cost_network.node[8].content_store 	hits[8] 	5649
scalar abilene_cost_network.node[8].content_store 	misses[8] 	63848
scalar abilene_cost_network.node[8].content_store 	decision_yes[8] 	164
scalar abilene_cost_network.node[8].content_store 	decision_no[8] 	63684
scalar abilene_cost_network.node[8].content_store 	decision_ratio[8] 	0.0025686004260118
scalar abilene_cost_network.node[8].content_store 	correction_factor[8] 	0.0071983837345384
scalar abilene_cost_network.node[8].content_store 	xi[8] 	0.5
scalar abilene_cost_network.node[9].core_layer 	interests[9] 	186901
scalar abilene_cost_network.node[9].core_layer 	data[9] 	172109
scalar abilene_cost_network.node[9].content_store 	p_hit[9] 	0.064028549873997
scalar abilene_cost_network.node[9].content_store 	hits[9] 	11967
scalar abilene_cost_network.node[9].content_store 	misses[9] 	174934
scalar abilene_cost_network.node[9].content_store 	decision_yes[9] 	712
scalar abilene_cost_network.node[9].content_store 	decision_no[9] 	171397
scalar abilene_cost_network.node[9].content_store 	decision_ratio[9] 	0.0041369132352172
scalar abilene_cost_network.node[9].content_store 	correction_factor[9] 	0.0071983837345384
scalar abilene_cost_network.node[9].content_store 	xi[9] 	0.5
scalar abilene_cost_network.node[10].core_layer 	interests[10] 	222408
scalar abilene_cost_network.node[10].core_layer 	data[10] 	214630
scalar abilene_cost_network.node[10].content_store 	p_hit[10] 	0.034971763605626
scalar abilene_cost_network.node[10].content_store 	hits[10] 	7778
scalar abilene_cost_network.node[10].content_store 	misses[10] 	214630
scalar abilene_cost_network.node[10].content_store 	decision_yes[10] 	573
scalar abilene_cost_network.node[10].content_store 	decision_no[10] 	214057
scalar abilene_cost_network.node[10].content_store 	decision_ratio[10] 	0.0026697106648651
scalar abilene_cost_network.node[10].content_store 	correction_factor[10] 	0.0071983837345384
scalar abilene_cost_network.node[10].content_store 	xi[10] 	0.5
scalar abilene_cost_network.node[11].core_layer 	interests[11] 	154100
scalar abilene_cost_network.node[11].core_layer 	repo_load[11] 	154100
scalar abilene_cost_network.node[11].core_layer 	data[11] 	0
scalar abilene_cost_network.node[11].content_store 	p_hit[11] 	0
scalar abilene_cost_network.node[11].content_store 	hits[11] 	0
scalar abilene_cost_network.node[11].content_store 	misses[11] 	154100
scalar abilene_cost_network.node[11].content_store 	decision_yes[11] 	0
scalar abilene_cost_network.node[11].content_store 	decision_no[11] 	154100
scalar abilene_cost_network.node[11].content_store 	decision_ratio[11] 	0
scalar abilene_cost_network.node[12].core_layer 	interests[12] 	71514
scalar abilene_cost_network.node[12].core_layer 	repo_load[12] 	71514
scalar abilene_cost_network.node[12].core_layer 	data[12] 	0
scalar abilene_cost_network.node[12].content_store 	p_hit[12] 	0
scalar abilene_cost_network.node[12].content_store 	hits[12] 	0
scalar abilene_cost_network.node[12].content_store 	misses[12] 	71514
scalar abilene_cost_network.node[12].content_store 	decision_yes[12] 	0
scalar abilene_cost_network.node[12].content_store 	decision_no[12] 	71514
scalar abilene_cost_network.node[12].content_store 	decision_ratio[12] 	0
scalar abilene_cost_network.node[13].core_layer 	interests[13] 	72124
scalar abilene_cost_network.node[13].core_layer 	repo_load[13] 	72124
scalar abilene_cost_network.node[13].core_layer 	data[13] 	0
scalar abilene_cost_network.node[13].content_store 	p_hit[13] 	0
scalar abilene_cost_network.node[13].content_store 	hits[13] 	0
scalar abilene_cost_network.node[13].content_store 	misses[13] 	72124
scalar abilene_cost_network.node[13].content_store 	decision_yes[13] 	0
scalar abilene_cost_network.node[13].content_store 	decision_no[13] 	72124
scalar abilene_cost_network.node[13].content_store 	decision_ratio[13] 	0
scalar abilene_cost_network.client[0] 	hdistance[0] 	3.0699722904323
scalar abilene_cost_network.client[0] 	downloads[0] 	177556
scalar abilene_cost_network.client[0] 	avg_time[0] 	0.014473332068
scalar abilene_cost_network.client[0] 	interests_sent[0] 	179994
scalar abilene_cost_network.client[5] 	hdistance[5] 	4.5941973183546
scalar abilene_cost_network.client[5] 	downloads[5] 	176608
scalar abilene_cost_network.client[5] 	avg_time[5] 	0.018785155471
scalar abilene_cost_network.client[5] 	interests_sent[5] 	179846
scalar abilene_cost_network.client[9] 	hdistance[9] 	2.940123908982
scalar abilene_cost_network.client[9] 	downloads[9] 	176097
scalar abilene_cost_network.client[9] 	avg_time[9] 	0.013662222579
scalar abilene_cost_network.client[9] 	interests_sent[9] 	178922
