version 2
run General-0-20140618-15:30:57-16761
attr D fix0.1
attr F spr
attr R lru
attr a 1
attr configname General
attr csize 1e3
attr ctlg 1e5
attr datetime 20140618-15:30:57
attr experiment General
attr inifile omnetpp.ini
attr iterationvars "$net=abilene_cost, $rep=1, $priceratiovalue=10, $weights=0.333_0.333_0.334, $lambda=100, $a=1, $ctlg=1e5, $F=spr, $ttl=1000, $D=fix0.1, $xi=1, $R=lru, $csize=1e3, $pricebits=0, $mytime=1800"
attr iterationvars2 "$net=abilene_cost, $rep=1, $priceratiovalue=10, $weights=0.333_0.333_0.334, $lambda=100, $a=1, $ctlg=1e5, $F=spr, $ttl=1000, $D=fix0.1, $xi=1, $R=lru, $csize=1e3, $pricebits=0, $mytime=1800, $repetition=0"
attr lambda 100
attr measurement "$net=abilene_cost, $rep=1, $priceratiovalue=10, $weights=0.333_0.333_0.334, $lambda=100, $a=1, $ctlg=1e5, $F=spr, $ttl=1000, $D=fix0.1, $xi=1, $R=lru, $csize=1e3, $pricebits=0, $mytime=1800"
attr mytime 1800
attr net abilene_cost
attr network networks.${net=abilene_cost}_network
attr pricebits 0
attr priceratiovalue 10
attr processid 16761
attr rep 1
attr repetition 0
attr replication #0
attr resultdir results
attr runnumber 0
attr seedset 1
attr ttl 1000
attr weights 0.333_0.333_0.334
attr xi 1

scalar . 	a 	1
scalar . 	csize 	1e3
scalar . 	ctlg 	1e5
scalar . 	lambda 	100
scalar . 	mytime 	1800
scalar . 	pricebits 	0
scalar . 	priceratiovalue 	10
scalar . 	rep 	1
scalar . 	ttl 	1000
scalar . 	xi 	1
scalar abilene_cost_network.content_distribution 	repo-0 	11
scalar abilene_cost_network.content_distribution 	repo-1 	12
scalar abilene_cost_network.content_distribution 	repo-2 	13
scalar abilene_cost_network.content_distribution 	client-0 	3
scalar abilene_cost_network.content_distribution 	client-1 	7
scalar abilene_cost_network.content_distribution 	client-2 	10
scalar abilene_cost_network.content_distribution 	repo-0_card 	33396
scalar abilene_cost_network.content_distribution 	repo-1_card 	33039
scalar abilene_cost_network.content_distribution 	repo-2_card 	33565
scalar abilene_cost_network.statistics 	repo_popularity[0] 	0.28686251265602
scalar abilene_cost_network.statistics 	repo_popularity[1] 	0.2886063426465
scalar abilene_cost_network.statistics 	repo_popularity[2] 	0.42453114469748
scalar abilene_cost_network.statistics 	stabilization_time 	100.9
scalar abilene_cost_network.node[0].face$o[3].channel 	price[0] 	0
scalar abilene_cost_network.node[0].face$o[3].channel 	represented_price[0] 	0
scalar abilene_cost_network.node[5].face$o[3].channel 	price[5] 	0
scalar abilene_cost_network.node[5].face$o[3].channel 	represented_price[5] 	0
scalar abilene_cost_network.node[9].face$o[3].channel 	price[9] 	0
scalar abilene_cost_network.node[9].face$o[3].channel 	represented_price[9] 	0
scalar abilene_cost_network.node[11].face$o[1].channel 	price[11] 	0
scalar abilene_cost_network.node[11].face$o[1].channel 	represented_price[11] 	0
scalar abilene_cost_network.node[12].face$o[1].channel 	price[12] 	1
scalar abilene_cost_network.node[12].face$o[1].channel 	represented_price[12] 	1
scalar abilene_cost_network.node[13].face$o[1].channel 	price[13] 	10
scalar abilene_cost_network.node[13].face$o[1].channel 	represented_price[13] 	10
scalar abilene_cost_network.statistics 	p_hit 	0.14606870992698
scalar abilene_cost_network.statistics 	inner_hit 	inf
scalar abilene_cost_network.statistics 	interests 	120304.92857143
scalar abilene_cost_network.statistics 	data 	81750.142857143
scalar abilene_cost_network.statistics 	hdistance 	2.6644225158133
scalar abilene_cost_network.statistics 	avg_time 	0
scalar abilene_cost_network.statistics 	downloads 	539767
scalar abilene_cost_network.statistics 	total_cost 	1115492
scalar abilene_cost_network.statistics 	total_replicas 	100000
scalar abilene_cost_network.statistics 	interests_sent 	539767
scalar abilene_cost_network.node[0].core_layer 	interests[0] 	109936
scalar abilene_cost_network.node[0].core_layer 	data[0] 	99622
scalar abilene_cost_network.node[0].core_layer 	repo_int[0] 	293748
scalar abilene_cost_network.node[0].content_store 	p_hit[0] 	0.093818221510697
scalar abilene_cost_network.node[0].content_store 	hits[0] 	10314
scalar abilene_cost_network.node[0].content_store 	misses[0] 	99622
scalar abilene_cost_network.node[0].content_store 	decision_yes[0] 	10065
scalar abilene_cost_network.node[0].content_store 	decision_no[0] 	89557
scalar abilene_cost_network.node[0].content_store 	decision_ratio[0] 	0.10103190058421
scalar abilene_cost_network.node[1].core_layer 	interests[1] 	76633
scalar abilene_cost_network.node[1].core_layer 	data[1] 	70935
scalar abilene_cost_network.node[1].content_store 	p_hit[1] 	0.074354390406222
scalar abilene_cost_network.node[1].content_store 	hits[1] 	5698
scalar abilene_cost_network.node[1].content_store 	misses[1] 	70935
scalar abilene_cost_network.node[1].content_store 	decision_yes[1] 	7262
scalar abilene_cost_network.node[1].content_store 	decision_no[1] 	63673
scalar abilene_cost_network.node[1].content_store 	decision_ratio[1] 	0.10237541411151
scalar abilene_cost_network.node[2].core_layer 	interests[2] 	76659
scalar abilene_cost_network.node[2].core_layer 	data[2] 	70856
scalar abilene_cost_network.node[2].content_store 	p_hit[2] 	0.07569887423525
scalar abilene_cost_network.node[2].content_store 	hits[2] 	5803
scalar abilene_cost_network.node[2].content_store 	misses[2] 	70856
scalar abilene_cost_network.node[2].content_store 	decision_yes[2] 	7147
scalar abilene_cost_network.node[2].content_store 	decision_no[2] 	63709
scalar abilene_cost_network.node[2].content_store 	decision_ratio[2] 	0.10086654623462
scalar abilene_cost_network.node[3].core_layer 	interests[3] 	214539
scalar abilene_cost_network.node[3].core_layer 	data[3] 	153212
scalar abilene_cost_network.node[3].content_store 	p_hit[3] 	0.28585478630925
scalar abilene_cost_network.node[3].content_store 	hits[3] 	61327
scalar abilene_cost_network.node[3].content_store 	misses[3] 	153212
scalar abilene_cost_network.node[3].content_store 	decision_yes[3] 	15328
scalar abilene_cost_network.node[3].content_store 	decision_no[3] 	137884
scalar abilene_cost_network.node[3].content_store 	decision_ratio[3] 	0.10004438294651
scalar abilene_cost_network.node[4].core_layer 	interests[4] 	72188
scalar abilene_cost_network.node[4].core_layer 	data[4] 	64528
scalar abilene_cost_network.node[4].content_store 	p_hit[4] 	0.10611181913892
scalar abilene_cost_network.node[4].content_store 	hits[4] 	7660
scalar abilene_cost_network.node[4].content_store 	misses[4] 	64528
scalar abilene_cost_network.node[4].content_store 	decision_yes[4] 	6379
scalar abilene_cost_network.node[4].content_store 	decision_no[4] 	58149
scalar abilene_cost_network.node[4].content_store 	decision_ratio[4] 	0.098856310438879
scalar abilene_cost_network.node[5].core_layer 	interests[5] 	97652
scalar abilene_cost_network.node[5].core_layer 	data[5] 	91752
scalar abilene_cost_network.node[5].content_store 	p_hit[5] 	0.060418629418752
scalar abilene_cost_network.node[5].content_store 	hits[5] 	5900
scalar abilene_cost_network.node[5].content_store 	misses[5] 	91752
scalar abilene_cost_network.node[5].content_store 	decision_yes[5] 	9111
scalar abilene_cost_network.node[5].content_store 	decision_no[5] 	82641
scalar abilene_cost_network.node[5].content_store 	decision_ratio[5] 	0.099300287732148
scalar abilene_cost_network.node[6].core_layer 	interests[6] 	40352
scalar abilene_cost_network.node[6].core_layer 	data[6] 	33124
scalar abilene_cost_network.node[6].content_store 	p_hit[6] 	0.17912371134021
scalar abilene_cost_network.node[6].content_store 	hits[6] 	7228
scalar abilene_cost_network.node[6].content_store 	misses[6] 	33124
scalar abilene_cost_network.node[6].content_store 	decision_yes[6] 	3376
scalar abilene_cost_network.node[6].content_store 	decision_no[6] 	29748
scalar abilene_cost_network.node[6].content_store 	decision_ratio[6] 	0.10192005796401
scalar abilene_cost_network.node[7].core_layer 	interests[7] 	220276
scalar abilene_cost_network.node[7].core_layer 	data[7] 	157183
scalar abilene_cost_network.node[7].content_store 	p_hit[7] 	0.28642702791044
scalar abilene_cost_network.node[7].content_store 	hits[7] 	63093
scalar abilene_cost_network.node[7].content_store 	misses[7] 	157183
scalar abilene_cost_network.node[7].content_store 	decision_yes[7] 	15818
scalar abilene_cost_network.node[7].content_store 	decision_no[7] 	141365
scalar abilene_cost_network.node[7].content_store 	decision_ratio[7] 	0.10063429251255
scalar abilene_cost_network.node[8].core_layer 	interests[8] 	116831
scalar abilene_cost_network.node[8].core_layer 	data[8] 	108476
scalar abilene_cost_network.node[8].content_store 	p_hit[8] 	0.071513553765696
scalar abilene_cost_network.node[8].content_store 	hits[8] 	8355
scalar abilene_cost_network.node[8].content_store 	misses[8] 	108476
scalar abilene_cost_network.node[8].content_store 	decision_yes[8] 	10853
scalar abilene_cost_network.node[8].content_store 	decision_no[8] 	97623
scalar abilene_cost_network.node[8].content_store 	decision_ratio[8] 	0.10004978059663
scalar abilene_cost_network.node[9].core_layer 	interests[9] 	148735
scalar abilene_cost_network.node[9].core_layer 	data[9] 	139608
scalar abilene_cost_network.node[9].content_store 	p_hit[9] 	0.061364171176925
scalar abilene_cost_network.node[9].content_store 	hits[9] 	9127
scalar abilene_cost_network.node[9].content_store 	misses[9] 	139608
scalar abilene_cost_network.node[9].content_store 	decision_yes[9] 	13876
scalar abilene_cost_network.node[9].content_store 	decision_no[9] 	125732
scalar abilene_cost_network.node[9].content_store 	decision_ratio[9] 	0.099392584952152
scalar abilene_cost_network.node[10].core_layer 	interests[10] 	216720
scalar abilene_cost_network.node[10].core_layer 	data[10] 	155206
scalar abilene_cost_network.node[10].content_store 	p_hit[10] 	0.28384090070137
scalar abilene_cost_network.node[10].content_store 	hits[10] 	61514
scalar abilene_cost_network.node[10].content_store 	misses[10] 	155206
scalar abilene_cost_network.node[10].content_store 	decision_yes[10] 	15628
scalar abilene_cost_network.node[10].content_store 	decision_no[10] 	139578
scalar abilene_cost_network.node[10].content_store 	decision_ratio[10] 	0.10069198355734
scalar abilene_cost_network.node[11].core_layer 	interests[11] 	99622
scalar abilene_cost_network.node[11].core_layer 	repo_load[11] 	99622
scalar abilene_cost_network.node[11].core_layer 	data[11] 	0
scalar abilene_cost_network.node[11].content_store 	p_hit[11] 	0
scalar abilene_cost_network.node[11].content_store 	hits[11] 	0
scalar abilene_cost_network.node[11].content_store 	misses[11] 	99622
scalar abilene_cost_network.node[11].content_store 	decision_yes[11] 	0
scalar abilene_cost_network.node[11].content_store 	decision_no[11] 	99622
scalar abilene_cost_network.node[11].content_store 	decision_ratio[11] 	0
scalar abilene_cost_network.node[12].core_layer 	interests[12] 	91752
scalar abilene_cost_network.node[12].core_layer 	repo_load[12] 	91752
scalar abilene_cost_network.node[12].core_layer 	data[12] 	0
scalar abilene_cost_network.node[12].content_store 	p_hit[12] 	0
scalar abilene_cost_network.node[12].content_store 	hits[12] 	0
scalar abilene_cost_network.node[12].content_store 	misses[12] 	91752
scalar abilene_cost_network.node[12].content_store 	decision_yes[12] 	0
scalar abilene_cost_network.node[12].content_store 	decision_no[12] 	91752
scalar abilene_cost_network.node[12].content_store 	decision_ratio[12] 	0
scalar abilene_cost_network.node[13].core_layer 	interests[13] 	102374
scalar abilene_cost_network.node[13].core_layer 	repo_load[13] 	102374
scalar abilene_cost_network.node[13].core_layer 	data[13] 	0
scalar abilene_cost_network.node[13].content_store 	p_hit[13] 	0
scalar abilene_cost_network.node[13].content_store 	hits[13] 	0
scalar abilene_cost_network.node[13].content_store 	misses[13] 	102374
scalar abilene_cost_network.node[13].content_store 	decision_yes[13] 	0
scalar abilene_cost_network.node[13].content_store 	decision_no[13] 	102374
scalar abilene_cost_network.node[13].content_store 	decision_ratio[13] 	0
scalar abilene_cost_network.client[3] 	hdistance[3] 	2.7181835326485
scalar abilene_cost_network.client[3] 	downloads[3] 	180284
scalar abilene_cost_network.client[3] 	avg_time[3] 	0
scalar abilene_cost_network.client[3] 	interests_sent[3] 	180284
scalar abilene_cost_network.client[7] 	hdistance[7] 	2.7422123702062
scalar abilene_cost_network.client[7] 	downloads[7] 	179997
scalar abilene_cost_network.client[7] 	avg_time[7] 	0
scalar abilene_cost_network.client[7] 	interests_sent[7] 	179997
scalar abilene_cost_network.client[10] 	hdistance[10] 	2.5328716445851
scalar abilene_cost_network.client[10] 	downloads[10] 	179486
scalar abilene_cost_network.client[10] 	avg_time[10] 	0
scalar abilene_cost_network.client[10] 	interests_sent[10] 	179486
