version 2
run General-3-20141030-19:28:23-15275
attr D costaware0.01
attr F nrr
attr R lru
attr a 1
attr configname General
attr csize 1e3
attr ctlg 1e5
attr datetime 20141030-19:28:23
attr experiment General
attr inifile omnetpp.ini
attr iterationvars "$rep=13, $lambda=100, $a=1, $ctlg=1e5, $F=nrr, $ttl=10, $D=costaware0.01, $R=lru, $csize=1e3, $window=60, $variance=0.05, $mytime=1800, $kappa=1, $priceratiovalue=10, $pricebits=0"
attr iterationvars2 "$rep=13, $lambda=100, $a=1, $ctlg=1e5, $F=nrr, $ttl=10, $D=costaware0.01, $R=lru, $csize=1e3, $window=60, $variance=0.05, $mytime=1800, $kappa=1, $priceratiovalue=10, $pricebits=0, $repetition=0"
attr kappa 1
attr lambda 100
attr measurement "$rep=13, $lambda=100, $a=1, $ctlg=1e5, $F=nrr, $ttl=10, $D=costaware0.01, $R=lru, $csize=1e3, $window=60, $variance=0.05, $mytime=1800, $kappa=1, $priceratiovalue=10, $pricebits=0"
attr mytime 1800
attr network networks.ws${rep}_network
attr pricebits 0
attr priceratiovalue 10
attr processid 15275
attr rep 13
attr repetition 0
attr replication #0
attr resultdir results
attr runnumber 3
attr seedset 13
attr ttl 10
attr variance 0.05
attr window 60

scalar . 	a 	1
scalar . 	csize 	1e3
scalar . 	ctlg 	1e5
scalar . 	kappa 	1
scalar . 	lambda 	100
scalar . 	mytime 	1800
scalar . 	pricebits 	0
scalar . 	priceratiovalue 	10
scalar . 	rep 	13
scalar . 	ttl 	10
scalar . 	variance 	0.05
scalar . 	window 	60
scalar ws13_network.content_distribution 	repo-0 	6
scalar ws13_network.content_distribution 	repo-1 	7
scalar ws13_network.content_distribution 	repo-2 	5
scalar ws13_network.content_distribution 	client-0 	18
scalar ws13_network.content_distribution 	client-1 	1
scalar ws13_network.content_distribution 	client-2 	12
scalar ws13_network.content_distribution 	repo-0_card 	33148
scalar ws13_network.content_distribution 	repo-0_price 	0
scalar ws13_network.content_distribution 	repo-1_card 	33483
scalar ws13_network.content_distribution 	repo-1_price 	1
scalar ws13_network.content_distribution 	repo-2_card 	33369
scalar ws13_network.content_distribution 	repo-2_price 	10
scalar ws13_network.statistics 	repo_popularity[0] 	0.3357648681557
scalar ws13_network.statistics 	repo_popularity[1] 	0.38046139947857
scalar ws13_network.statistics 	repo_popularity[2] 	0.28377373236574
scalar ws13_network.statistics 	stabilization_time 	36060
scalar ws13_network.statistics 	p_hit 	0.1100177628671
scalar ws13_network.statistics 	interests 	82782.5
scalar ws13_network.statistics 	data 	58254.772727273
scalar ws13_network.statistics 	hdistance 	3.031745803354
scalar ws13_network.statistics 	avg_time 	0.012385959342
scalar ws13_network.statistics 	downloads 	533381
scalar ws13_network.statistics 	total_cost 	850135
scalar ws13_network.statistics 	total_replicas 	100000
scalar ws13_network.statistics 	inner_hit 	0.3777806108579
scalar ws13_network.statistics 	interests_sent 	539612
scalar ws13_network.node[0].core_layer 	interests[0] 	41511
scalar ws13_network.node[0].core_layer 	data[0] 	29113
scalar ws13_network.node[0].core_layer 	repo_int[0] 	331880
scalar ws13_network.node[0].content_store 	p_hit[0] 	0.29866782298668
scalar ws13_network.node[0].content_store 	hits[0] 	12398
scalar ws13_network.node[0].content_store 	misses[0] 	29113
scalar ws13_network.node[0].content_store 	decision_yes[0] 	686
scalar ws13_network.node[0].content_store 	decision_no[0] 	28427
scalar ws13_network.node[0].content_store 	decision_ratio[0] 	0.0235633565761
scalar ws13_network.node[0].content_store 	correction_factor[0] 	0.0027225701061802
scalar ws13_network.node[0].content_store 	kappa[0] 	1
scalar ws13_network.node[1].core_layer 	interests[1] 	193181
scalar ws13_network.node[1].core_layer 	data[1] 	180244
scalar ws13_network.node[1].content_store 	p_hit[1] 	0.052437869148622
scalar ws13_network.node[1].content_store 	hits[1] 	10130
scalar ws13_network.node[1].content_store 	misses[1] 	183051
scalar ws13_network.node[1].content_store 	decision_yes[1] 	800
scalar ws13_network.node[1].content_store 	decision_no[1] 	179444
scalar ws13_network.node[1].content_store 	decision_ratio[1] 	0.0044384279088347
scalar ws13_network.node[1].content_store 	correction_factor[1] 	0.0027225701061802
scalar ws13_network.node[1].content_store 	kappa[1] 	1
scalar ws13_network.node[2].core_layer 	interests[2] 	79529
scalar ws13_network.node[2].core_layer 	data[2] 	70539
scalar ws13_network.node[2].content_store 	p_hit[2] 	0.1129776559494
scalar ws13_network.node[2].content_store 	hits[2] 	8985
scalar ws13_network.node[2].content_store 	misses[2] 	70544
scalar ws13_network.node[2].content_store 	decision_yes[2] 	73
scalar ws13_network.node[2].content_store 	decision_no[2] 	70466
scalar ws13_network.node[2].content_store 	decision_ratio[2] 	0.0010348885013964
scalar ws13_network.node[2].content_store 	correction_factor[2] 	0.0027225701061802
scalar ws13_network.node[2].content_store 	kappa[2] 	1
scalar ws13_network.node[3].core_layer 	interests[3] 	223393
scalar ws13_network.node[3].core_layer 	data[3] 	211853
scalar ws13_network.node[3].content_store 	p_hit[3] 	0.046729306647925
scalar ws13_network.node[3].content_store 	hits[3] 	10439
scalar ws13_network.node[3].content_store 	misses[3] 	212954
scalar ws13_network.node[3].content_store 	decision_yes[3] 	1340
scalar ws13_network.node[3].content_store 	decision_no[3] 	210513
scalar ws13_network.node[3].content_store 	decision_ratio[3] 	0.006325140545567
scalar ws13_network.node[3].content_store 	correction_factor[3] 	0.0027225701061802
scalar ws13_network.node[3].content_store 	kappa[3] 	1
scalar ws13_network.node[4].core_layer 	interests[4] 	208705
scalar ws13_network.node[4].core_layer 	data[4] 	193289
scalar ws13_network.node[4].content_store 	p_hit[4] 	0.073865024795764
scalar ws13_network.node[4].content_store 	hits[4] 	15416
scalar ws13_network.node[4].content_store 	misses[4] 	193289
scalar ws13_network.node[4].content_store 	decision_yes[4] 	1376
scalar ws13_network.node[4].content_store 	decision_no[4] 	191913
scalar ws13_network.node[4].content_store 	decision_ratio[4] 	0.0071188738107187
scalar ws13_network.node[4].content_store 	correction_factor[4] 	0.0027225701061802
scalar ws13_network.node[4].content_store 	kappa[4] 	1
scalar ws13_network.node[5].core_layer 	interests[5] 	86982
scalar ws13_network.node[5].core_layer 	repo_load[5] 	77379
scalar ws13_network.node[5].core_layer 	data[5] 	0
scalar ws13_network.node[5].content_store 	p_hit[5] 	0.11040215216941
scalar ws13_network.node[5].content_store 	hits[5] 	9603
scalar ws13_network.node[5].content_store 	misses[5] 	77379
scalar ws13_network.node[5].content_store 	decision_yes[5] 	2153
scalar ws13_network.node[5].content_store 	decision_no[5] 	75226
scalar ws13_network.node[5].content_store 	decision_ratio[5] 	0.027824086638494
scalar ws13_network.node[5].content_store 	correction_factor[5] 	0.0027225701061802
scalar ws13_network.node[5].content_store 	kappa[5] 	1
scalar ws13_network.node[6].core_layer 	interests[6] 	183319
scalar ws13_network.node[6].core_layer 	repo_load[6] 	178156
scalar ws13_network.node[6].core_layer 	data[6] 	5163
scalar ws13_network.node[6].content_store 	p_hit[6] 	0
scalar ws13_network.node[6].content_store 	hits[6] 	0
scalar ws13_network.node[6].content_store 	misses[6] 	183319
scalar ws13_network.node[6].content_store 	decision_yes[6] 	0
scalar ws13_network.node[6].content_store 	decision_no[6] 	183319
scalar ws13_network.node[6].content_store 	decision_ratio[6] 	0
scalar ws13_network.node[6].content_store 	correction_factor[6] 	0.0027225701061802
scalar ws13_network.node[6].content_store 	kappa[6] 	1
scalar ws13_network.node[7].core_layer 	interests[7] 	112046
scalar ws13_network.node[7].core_layer 	repo_load[7] 	76345
scalar ws13_network.node[7].core_layer 	data[7] 	0
scalar ws13_network.node[7].content_store 	p_hit[7] 	0.31862806347393
scalar ws13_network.node[7].content_store 	hits[7] 	35701
scalar ws13_network.node[7].content_store 	misses[7] 	76345
scalar ws13_network.node[7].content_store 	decision_yes[7] 	225
scalar ws13_network.node[7].content_store 	decision_no[7] 	76120
scalar ws13_network.node[7].content_store 	decision_ratio[7] 	0.002947147815836
scalar ws13_network.node[7].content_store 	correction_factor[7] 	0.0027225701061802
scalar ws13_network.node[7].content_store 	kappa[7] 	1
scalar ws13_network.node[8].core_layer 	interests[8] 	45354
scalar ws13_network.node[8].core_layer 	data[8] 	37226
scalar ws13_network.node[8].content_store 	p_hit[8] 	0.17919036909644
scalar ws13_network.node[8].content_store 	hits[8] 	8127
scalar ws13_network.node[8].content_store 	misses[8] 	37227
scalar ws13_network.node[8].content_store 	decision_yes[8] 	80
scalar ws13_network.node[8].content_store 	decision_no[8] 	37146
scalar ws13_network.node[8].content_store 	decision_ratio[8] 	0.0021490356202654
scalar ws13_network.node[8].content_store 	correction_factor[8] 	0.0027225701061802
scalar ws13_network.node[8].content_store 	kappa[8] 	1
scalar ws13_network.node[9].core_layer 	interests[9] 	72641
scalar ws13_network.node[9].core_layer 	data[9] 	61747
scalar ws13_network.node[9].content_store 	p_hit[9] 	0.14994286972922
scalar ws13_network.node[9].content_store 	hits[9] 	10892
scalar ws13_network.node[9].content_store 	misses[9] 	61749
scalar ws13_network.node[9].content_store 	decision_yes[9] 	79
scalar ws13_network.node[9].content_store 	decision_no[9] 	61668
scalar ws13_network.node[9].content_store 	decision_ratio[9] 	0.0012794143845045
scalar ws13_network.node[9].content_store 	correction_factor[9] 	0.0027225701061802
scalar ws13_network.node[9].content_store 	kappa[9] 	1
scalar ws13_network.node[10].core_layer 	interests[10] 	0
scalar ws13_network.node[10].core_layer 	data[10] 	0
scalar ws13_network.node[10].content_store 	p_hit[10] 	-nan
scalar ws13_network.node[10].content_store 	hits[10] 	0
scalar ws13_network.node[10].content_store 	misses[10] 	0
scalar ws13_network.node[10].content_store 	decision_yes[10] 	0
scalar ws13_network.node[10].content_store 	decision_no[10] 	0
scalar ws13_network.node[10].content_store 	decision_ratio[10] 	0
scalar ws13_network.node[10].content_store 	correction_factor[10] 	0.0027225701061802
scalar ws13_network.node[10].content_store 	kappa[10] 	1
scalar ws13_network.node[11].core_layer 	interests[11] 	38180
scalar ws13_network.node[11].core_layer 	data[11] 	33308
scalar ws13_network.node[11].content_store 	p_hit[11] 	0.12760607647983
scalar ws13_network.node[11].content_store 	hits[11] 	4872
scalar ws13_network.node[11].content_store 	misses[11] 	33308
scalar ws13_network.node[11].content_store 	decision_yes[11] 	692
scalar ws13_network.node[11].content_store 	decision_no[11] 	32616
scalar ws13_network.node[11].content_store 	decision_ratio[11] 	0.020775789600096
scalar ws13_network.node[11].content_store 	correction_factor[11] 	0.0027225701061802
scalar ws13_network.node[11].content_store 	kappa[11] 	1
scalar ws13_network.node[12].core_layer 	interests[12] 	186398
scalar ws13_network.node[12].core_layer 	data[12] 	177225
scalar ws13_network.node[12].content_store 	p_hit[12] 	0.039710726509941
scalar ws13_network.node[12].content_store 	hits[12] 	7402
scalar ws13_network.node[12].content_store 	misses[12] 	178996
scalar ws13_network.node[12].content_store 	decision_yes[12] 	820
scalar ws13_network.node[12].content_store 	decision_no[12] 	176405
scalar ws13_network.node[12].content_store 	decision_ratio[12] 	0.0046268867259134
scalar ws13_network.node[12].content_store 	correction_factor[12] 	0.0027225701061802
scalar ws13_network.node[12].content_store 	kappa[12] 	1
scalar ws13_network.node[13].core_layer 	interests[13] 	0
scalar ws13_network.node[13].core_layer 	data[13] 	0
scalar ws13_network.node[13].content_store 	p_hit[13] 	-nan
scalar ws13_network.node[13].content_store 	hits[13] 	0
scalar ws13_network.node[13].content_store 	misses[13] 	0
scalar ws13_network.node[13].content_store 	decision_yes[13] 	0
scalar ws13_network.node[13].content_store 	decision_no[13] 	0
scalar ws13_network.node[13].content_store 	decision_ratio[13] 	0
scalar ws13_network.node[13].content_store 	correction_factor[13] 	0.0027225701061802
scalar ws13_network.node[13].content_store 	kappa[13] 	1
scalar ws13_network.node[14].core_layer 	interests[14] 	1650
scalar ws13_network.node[14].core_layer 	data[14] 	1650
scalar ws13_network.node[14].content_store 	p_hit[14] 	0
scalar ws13_network.node[14].content_store 	hits[14] 	0
scalar ws13_network.node[14].content_store 	misses[14] 	1650
scalar ws13_network.node[14].content_store 	decision_yes[14] 	0
scalar ws13_network.node[14].content_store 	decision_no[14] 	1650
scalar ws13_network.node[14].content_store 	decision_ratio[14] 	0
scalar ws13_network.node[14].content_store 	correction_factor[14] 	0.0027225701061802
scalar ws13_network.node[14].content_store 	kappa[14] 	1
scalar ws13_network.node[15].core_layer 	interests[15] 	102265
scalar ws13_network.node[15].core_layer 	data[15] 	50088
scalar ws13_network.node[15].content_store 	p_hit[15] 	0.51021366058769
scalar ws13_network.node[15].content_store 	hits[15] 	52177
scalar ws13_network.node[15].content_store 	misses[15] 	50088
scalar ws13_network.node[15].content_store 	decision_yes[15] 	65
scalar ws13_network.node[15].content_store 	decision_no[15] 	50023
scalar ws13_network.node[15].content_store 	decision_ratio[15] 	0.0012977160198051
scalar ws13_network.node[15].content_store 	correction_factor[15] 	0.0027225701061802
scalar ws13_network.node[15].content_store 	kappa[15] 	1
scalar ws13_network.node[16].core_layer 	interests[16] 	0
scalar ws13_network.node[16].core_layer 	data[16] 	0
scalar ws13_network.node[16].content_store 	p_hit[16] 	-nan
scalar ws13_network.node[16].content_store 	hits[16] 	0
scalar ws13_network.node[16].content_store 	misses[16] 	0
scalar ws13_network.node[16].content_store 	decision_yes[16] 	0
scalar ws13_network.node[16].content_store 	decision_no[16] 	0
scalar ws13_network.node[16].content_store 	decision_ratio[16] 	0
scalar ws13_network.node[16].content_store 	correction_factor[16] 	0.0027225701061802
scalar ws13_network.node[16].content_store 	kappa[16] 	1
scalar ws13_network.node[17].core_layer 	interests[17] 	62312
scalar ws13_network.node[17].core_layer 	data[17] 	54158
scalar ws13_network.node[17].content_store 	p_hit[17] 	0.13087366799332
scalar ws13_network.node[17].content_store 	hits[17] 	8155
scalar ws13_network.node[17].content_store 	misses[17] 	54157
scalar ws13_network.node[17].content_store 	decision_yes[17] 	53
scalar ws13_network.node[17].content_store 	decision_no[17] 	54105
scalar ws13_network.node[17].content_store 	decision_ratio[17] 	0.00097861811736032
scalar ws13_network.node[17].content_store 	correction_factor[17] 	0.0027225701061802
scalar ws13_network.node[17].content_store 	kappa[17] 	1
scalar ws13_network.node[18].core_layer 	interests[18] 	183749
scalar ws13_network.node[18].core_layer 	data[18] 	176002
scalar ws13_network.node[18].content_store 	p_hit[18] 	0.033028751176877
scalar ws13_network.node[18].content_store 	hits[18] 	6069
scalar ws13_network.node[18].content_store 	misses[18] 	177680
scalar ws13_network.node[18].content_store 	decision_yes[18] 	776
scalar ws13_network.node[18].content_store 	decision_no[18] 	175226
scalar ws13_network.node[18].content_store 	decision_ratio[18] 	0.0044090408063545
scalar ws13_network.node[18].content_store 	correction_factor[18] 	0.0027225701061802
scalar ws13_network.node[18].content_store 	kappa[18] 	1
scalar ws13_network.node[19].core_layer 	interests[19] 	0
scalar ws13_network.node[19].core_layer 	data[19] 	0
scalar ws13_network.node[19].content_store 	p_hit[19] 	-nan
scalar ws13_network.node[19].content_store 	hits[19] 	0
scalar ws13_network.node[19].content_store 	misses[19] 	0
scalar ws13_network.node[19].content_store 	decision_yes[19] 	0
scalar ws13_network.node[19].content_store 	decision_no[19] 	0
scalar ws13_network.node[19].content_store 	decision_ratio[19] 	0
scalar ws13_network.node[19].content_store 	correction_factor[19] 	0.0027225701061802
scalar ws13_network.node[19].content_store 	kappa[19] 	1
scalar ws13_network.node[20].core_layer 	interests[20] 	0
scalar ws13_network.node[20].core_layer 	data[20] 	0
scalar ws13_network.node[20].content_store 	p_hit[20] 	-nan
scalar ws13_network.node[20].content_store 	hits[20] 	0
scalar ws13_network.node[20].content_store 	misses[20] 	0
scalar ws13_network.node[20].content_store 	decision_yes[20] 	0
scalar ws13_network.node[20].content_store 	decision_no[20] 	0
scalar ws13_network.node[20].content_store 	decision_ratio[20] 	0
scalar ws13_network.node[20].content_store 	correction_factor[20] 	0.0027225701061802
scalar ws13_network.node[20].content_store 	kappa[20] 	1
scalar ws13_network.node[21].core_layer 	interests[21] 	0
scalar ws13_network.node[21].core_layer 	data[21] 	0
scalar ws13_network.node[21].content_store 	p_hit[21] 	-nan
scalar ws13_network.node[21].content_store 	hits[21] 	0
scalar ws13_network.node[21].content_store 	misses[21] 	0
scalar ws13_network.node[21].content_store 	decision_yes[21] 	0
scalar ws13_network.node[21].content_store 	decision_no[21] 	0
scalar ws13_network.node[21].content_store 	decision_ratio[21] 	0
scalar ws13_network.node[21].content_store 	correction_factor[21] 	0.0027225701061802
scalar ws13_network.node[21].content_store 	kappa[21] 	1
scalar ws13_network.client[1] 	hdistance[1] 	3.4235052523497
scalar ws13_network.client[1] 	downloads[1] 	177254
scalar ws13_network.client[1] 	avg_time[1] 	0.014371376192
scalar ws13_network.client[1] 	interests_sent[1] 	180036
scalar ws13_network.client[12] 	hdistance[12] 	2.6170308324537
scalar ws13_network.client[12] 	downloads[12] 	178124
scalar ws13_network.client[12] 	avg_time[12] 	0.010268541778
scalar ws13_network.client[12] 	interests_sent[12] 	179895
scalar ws13_network.client[18] 	hdistance[18] 	3.0547013252586
scalar ws13_network.client[18] 	downloads[18] 	178003
scalar ws13_network.client[18] 	avg_time[18] 	0.012517960056
scalar ws13_network.client[18] 	interests_sent[18] 	179681
