version 2
run General-26-20140426-21:26:30-15087
attr D costprob0.0002
attr F nrr
attr R lru
attr a 1
attr configname General
attr csize 1000
attr ctlg 10^5
attr datetime 20140426-21:26:30
attr experiment General
attr inifile omnetpp.ini
attr iterationvars "$net=one_cache_scenario, $rep=3, $priceratiovalue=10, $a=1, $ctlg=10^5, $F=nrr, $ttl=1000, $D=costprob0.0002, $xi=1, $R=lru, $csize=1000"
attr iterationvars2 "$net=one_cache_scenario, $rep=3, $priceratiovalue=10, $a=1, $ctlg=10^5, $F=nrr, $ttl=1000, $D=costprob0.0002, $xi=1, $R=lru, $csize=1000, $repetition=0"
attr measurement "$net=one_cache_scenario, $rep=3, $priceratiovalue=10, $a=1, $ctlg=10^5, $F=nrr, $ttl=1000, $D=costprob0.0002, $xi=1, $R=lru, $csize=1000"
attr net one_cache_scenario
attr network networks.${net=one_cache_scenario}_network
attr priceratiovalue 10
attr processid 15087
attr rep 3
attr repetition 0
attr replication #0
attr resultdir results
attr runnumber 26
attr seedset 3
attr ttl 1000
attr xi 1

scalar . 	a 	1
scalar . 	csize 	1000
scalar . 	priceratiovalue 	10
scalar . 	rep 	3
scalar . 	ttl 	1000
scalar . 	xi 	1
scalar one_cache_scenario_network.content_distribution 	repo-0 	3
scalar one_cache_scenario_network.content_distribution 	repo-1 	4
scalar one_cache_scenario_network.content_distribution 	client-0 	0
scalar one_cache_scenario_network.content_distribution 	repo-0_card 	50325
scalar one_cache_scenario_network.content_distribution 	repo-1_card 	49675
scalar one_cache_scenario_network.statistics 	p_hit 	0.15568379689893
scalar one_cache_scenario_network.statistics 	interests 	81894.2
scalar one_cache_scenario_network.statistics 	data 	46096.4
scalar one_cache_scenario_network.statistics 	hdistance 	1.2876880702166
scalar one_cache_scenario_network.statistics 	avg_time 	0
scalar one_cache_scenario_network.statistics 	downloads 	178989
scalar one_cache_scenario_network.statistics 	total_cost 	53043
scalar one_cache_scenario_network.statistics 	interests_sent 	178989
scalar one_cache_scenario_network.node[0].core_layer 	interests[0] 	178989
scalar one_cache_scenario_network.node[0].core_layer 	data[0] 	115241
scalar one_cache_scenario_network.node[0].core_layer 	repo_int[0] 	115241
scalar one_cache_scenario_network.node[0].content_store 	p_hit[0] 	0.3561559648917
scalar one_cache_scenario_network.node[0].content_store 	hits[0] 	63748
scalar one_cache_scenario_network.node[0].content_store 	misses[0] 	115241
scalar one_cache_scenario_network.node[0].content_store 	decision_yes[0] 	7
scalar one_cache_scenario_network.node[0].content_store 	decision_no[0] 	115234
scalar one_cache_scenario_network.node[1].core_layer 	interests[1] 	63214
scalar one_cache_scenario_network.node[1].core_layer 	data[1] 	63214
scalar one_cache_scenario_network.node[1].content_store 	p_hit[1] 	0
scalar one_cache_scenario_network.node[1].content_store 	hits[1] 	0
scalar one_cache_scenario_network.node[1].content_store 	misses[1] 	63214
scalar one_cache_scenario_network.node[1].content_store 	decision_yes[1] 	0
scalar one_cache_scenario_network.node[1].content_store 	decision_no[1] 	63214
scalar one_cache_scenario_network.node[2].core_layer 	interests[2] 	52027
scalar one_cache_scenario_network.node[2].core_layer 	data[2] 	52027
scalar one_cache_scenario_network.node[2].content_store 	p_hit[2] 	0
scalar one_cache_scenario_network.node[2].content_store 	hits[2] 	0
scalar one_cache_scenario_network.node[2].content_store 	misses[2] 	52027
scalar one_cache_scenario_network.node[2].content_store 	decision_yes[2] 	0
scalar one_cache_scenario_network.node[2].content_store 	decision_no[2] 	52027
scalar one_cache_scenario_network.node[3].core_layer 	interests[3] 	63214
scalar one_cache_scenario_network.node[3].core_layer 	repo_load[3] 	63214
scalar one_cache_scenario_network.node[3].core_layer 	data[3] 	0
scalar one_cache_scenario_network.node[3].content_store 	p_hit[3] 	0
scalar one_cache_scenario_network.node[3].content_store 	hits[3] 	0
scalar one_cache_scenario_network.node[3].content_store 	misses[3] 	63214
scalar one_cache_scenario_network.node[3].content_store 	decision_yes[3] 	0
scalar one_cache_scenario_network.node[3].content_store 	decision_no[3] 	63214
scalar one_cache_scenario_network.node[4].core_layer 	interests[4] 	52027
scalar one_cache_scenario_network.node[4].core_layer 	repo_load[4] 	52027
scalar one_cache_scenario_network.node[4].core_layer 	data[4] 	0
scalar one_cache_scenario_network.node[4].content_store 	p_hit[4] 	0
scalar one_cache_scenario_network.node[4].content_store 	hits[4] 	0
scalar one_cache_scenario_network.node[4].content_store 	misses[4] 	52027
scalar one_cache_scenario_network.node[4].content_store 	decision_yes[4] 	0
scalar one_cache_scenario_network.node[4].content_store 	decision_no[4] 	52027
scalar one_cache_scenario_network.client[0] 	hdistance[0] 	1.2876880702166
scalar one_cache_scenario_network.client[0] 	downloads[0] 	178989
scalar one_cache_scenario_network.client[0] 	avg_time[0] 	0
scalar one_cache_scenario_network.client[0] 	interests_sent[0] 	178989
