version 2
run General-1730-20140504-19:43:17-19615
attr D costprob0.01
attr F nrr
attr R lru
attr a 1
attr configname General
attr csize 1e3
attr ctlg 1e5
attr datetime 20140504-19:43:17
attr experiment General
attr inifile omnetpp.ini
attr iterationvars "$net=one_cache_scenario_3_links, $rep=17, $priceratiovalue=1, $weights=0.333_0.333_0.334, $a=1, $ctlg=1e5, $F=nrr, $ttl=1000, $D=costprob0.01, $xi=1, $R=lru, $csize=1e3"
attr iterationvars2 "$net=one_cache_scenario_3_links, $rep=17, $priceratiovalue=1, $weights=0.333_0.333_0.334, $a=1, $ctlg=1e5, $F=nrr, $ttl=1000, $D=costprob0.01, $xi=1, $R=lru, $csize=1e3, $repetition=0"
attr measurement "$net=one_cache_scenario_3_links, $rep=17, $priceratiovalue=1, $weights=0.333_0.333_0.334, $a=1, $ctlg=1e5, $F=nrr, $ttl=1000, $D=costprob0.01, $xi=1, $R=lru, $csize=1e3"
attr net one_cache_scenario_3_links
attr network networks.${net=one_cache_scenario_3_links}_network
attr priceratiovalue 1
attr processid 19615
attr rep 17
attr repetition 0
attr replication #0
attr resultdir results
attr runnumber 1730
attr seedset 17
attr ttl 1000
attr weights 0.333_0.333_0.334
attr xi 1

scalar . 	a 	1
scalar . 	csize 	1e3
scalar . 	ctlg 	1e5
scalar . 	priceratiovalue 	1
scalar . 	rep 	17
scalar . 	ttl 	1000
scalar . 	xi 	1
scalar one_cache_scenario_3_links_network.content_distribution 	repo-0 	4
scalar one_cache_scenario_3_links_network.content_distribution 	repo-1 	5
scalar one_cache_scenario_3_links_network.content_distribution 	repo-2 	6
scalar one_cache_scenario_3_links_network.content_distribution 	client-0 	0
scalar one_cache_scenario_3_links_network.content_distribution 	repo-0_card 	33123
scalar one_cache_scenario_3_links_network.content_distribution 	repo-1_card 	33416
scalar one_cache_scenario_3_links_network.content_distribution 	repo-2_card 	33461
scalar one_cache_scenario_3_links_network.statistics 	p_hit 	0.17404513349361
scalar one_cache_scenario_3_links_network.statistics 	interests 	57461.285714286
scalar one_cache_scenario_3_links_network.statistics 	data 	31640.285714286
scalar one_cache_scenario_3_links_network.statistics 	hdistance 	1.2253702689395
scalar one_cache_scenario_3_links_network.statistics 	avg_time 	0
scalar one_cache_scenario_3_links_network.statistics 	downloads 	180747
scalar one_cache_scenario_3_links_network.statistics 	total_cost 	51675
scalar one_cache_scenario_3_links_network.statistics 	total_replicas 	100000
scalar one_cache_scenario_3_links_network.statistics 	interests_sent 	180747
scalar one_cache_scenario_3_links_network.node[0].core_layer 	interests[0] 	180747
scalar one_cache_scenario_3_links_network.node[0].core_layer 	data[0] 	110741
scalar one_cache_scenario_3_links_network.node[0].core_layer 	repo_int[0] 	110741
scalar one_cache_scenario_3_links_network.node[0].content_store 	p_hit[0] 	0.38731486553027
scalar one_cache_scenario_3_links_network.node[0].content_store 	hits[0] 	70006
scalar one_cache_scenario_3_links_network.node[0].content_store 	misses[0] 	110741
scalar one_cache_scenario_3_links_network.node[0].content_store 	decision_yes[0] 	761
scalar one_cache_scenario_3_links_network.node[0].content_store 	decision_no[0] 	109980
scalar one_cache_scenario_3_links_network.node[1].core_layer 	interests[1] 	59066
scalar one_cache_scenario_3_links_network.node[1].core_layer 	data[1] 	59066
scalar one_cache_scenario_3_links_network.node[1].content_store 	p_hit[1] 	0
scalar one_cache_scenario_3_links_network.node[1].content_store 	hits[1] 	0
scalar one_cache_scenario_3_links_network.node[1].content_store 	misses[1] 	59066
scalar one_cache_scenario_3_links_network.node[1].content_store 	decision_yes[1] 	0
scalar one_cache_scenario_3_links_network.node[1].content_store 	decision_no[1] 	59066
scalar one_cache_scenario_3_links_network.node[2].core_layer 	interests[2] 	25802
scalar one_cache_scenario_3_links_network.node[2].core_layer 	data[2] 	25802
scalar one_cache_scenario_3_links_network.node[2].content_store 	p_hit[2] 	0
scalar one_cache_scenario_3_links_network.node[2].content_store 	hits[2] 	0
scalar one_cache_scenario_3_links_network.node[2].content_store 	misses[2] 	25802
scalar one_cache_scenario_3_links_network.node[2].content_store 	decision_yes[2] 	0
scalar one_cache_scenario_3_links_network.node[2].content_store 	decision_no[2] 	25802
scalar one_cache_scenario_3_links_network.node[3].core_layer 	interests[3] 	25873
scalar one_cache_scenario_3_links_network.node[3].core_layer 	data[3] 	25873
scalar one_cache_scenario_3_links_network.node[3].content_store 	p_hit[3] 	0
scalar one_cache_scenario_3_links_network.node[3].content_store 	hits[3] 	0
scalar one_cache_scenario_3_links_network.node[3].content_store 	misses[3] 	25873
scalar one_cache_scenario_3_links_network.node[3].content_store 	decision_yes[3] 	0
scalar one_cache_scenario_3_links_network.node[3].content_store 	decision_no[3] 	25873
scalar one_cache_scenario_3_links_network.node[4].core_layer 	interests[4] 	59066
scalar one_cache_scenario_3_links_network.node[4].core_layer 	repo_load[4] 	59066
scalar one_cache_scenario_3_links_network.node[4].core_layer 	data[4] 	0
scalar one_cache_scenario_3_links_network.node[4].content_store 	p_hit[4] 	0
scalar one_cache_scenario_3_links_network.node[4].content_store 	hits[4] 	0
scalar one_cache_scenario_3_links_network.node[4].content_store 	misses[4] 	59066
scalar one_cache_scenario_3_links_network.node[4].content_store 	decision_yes[4] 	0
scalar one_cache_scenario_3_links_network.node[4].content_store 	decision_no[4] 	59066
scalar one_cache_scenario_3_links_network.node[5].core_layer 	interests[5] 	25802
scalar one_cache_scenario_3_links_network.node[5].core_layer 	repo_load[5] 	25802
scalar one_cache_scenario_3_links_network.node[5].core_layer 	data[5] 	0
scalar one_cache_scenario_3_links_network.node[5].content_store 	p_hit[5] 	0
scalar one_cache_scenario_3_links_network.node[5].content_store 	hits[5] 	0
scalar one_cache_scenario_3_links_network.node[5].content_store 	misses[5] 	25802
scalar one_cache_scenario_3_links_network.node[5].content_store 	decision_yes[5] 	0
scalar one_cache_scenario_3_links_network.node[5].content_store 	decision_no[5] 	25802
scalar one_cache_scenario_3_links_network.node[6].core_layer 	interests[6] 	25873
scalar one_cache_scenario_3_links_network.node[6].core_layer 	repo_load[6] 	25873
scalar one_cache_scenario_3_links_network.node[6].core_layer 	data[6] 	0
scalar one_cache_scenario_3_links_network.node[6].content_store 	p_hit[6] 	0
scalar one_cache_scenario_3_links_network.node[6].content_store 	hits[6] 	0
scalar one_cache_scenario_3_links_network.node[6].content_store 	misses[6] 	25873
scalar one_cache_scenario_3_links_network.node[6].content_store 	decision_yes[6] 	0
scalar one_cache_scenario_3_links_network.node[6].content_store 	decision_no[6] 	25873
scalar one_cache_scenario_3_links_network.client[0] 	hdistance[0] 	1.2253702689395
scalar one_cache_scenario_3_links_network.client[0] 	downloads[0] 	180747
scalar one_cache_scenario_3_links_network.client[0] 	avg_time[0] 	0
scalar one_cache_scenario_3_links_network.client[0] 	interests_sent[0] 	180747
