version 2
run General-779-20140502-02:33:03-9677
attr D fix0.005
attr F nrr
attr R lru
attr a 1
attr configname General
attr csize 1e3
attr ctlg 1e5
attr datetime 20140502-02:33:03
attr experiment General
attr inifile omnetpp.ini
attr iterationvars "$net=three_caches_scenario_3_links, $rep=2, $priceratiovalue=2, $weights=0.2_0.4_0.4, $a=1, $ctlg=1e5, $F=nrr, $ttl=1000, $D=fix0.005, $xi=1, $R=lru, $csize=1e3"
attr iterationvars2 "$net=three_caches_scenario_3_links, $rep=2, $priceratiovalue=2, $weights=0.2_0.4_0.4, $a=1, $ctlg=1e5, $F=nrr, $ttl=1000, $D=fix0.005, $xi=1, $R=lru, $csize=1e3, $repetition=0"
attr measurement "$net=three_caches_scenario_3_links, $rep=2, $priceratiovalue=2, $weights=0.2_0.4_0.4, $a=1, $ctlg=1e5, $F=nrr, $ttl=1000, $D=fix0.005, $xi=1, $R=lru, $csize=1e3"
attr net three_caches_scenario_3_links
attr network networks.${net=three_caches_scenario_3_links}_network
attr priceratiovalue 2
attr processid 9677
attr rep 2
attr repetition 0
attr replication #0
attr resultdir results
attr runnumber 779
attr seedset 2
attr ttl 1000
attr weights 0.2_0.4_0.4
attr xi 1

scalar . 	a 	1
scalar . 	csize 	1e3
scalar . 	ctlg 	1e5
scalar . 	priceratiovalue 	2
scalar . 	rep 	2
scalar . 	ttl 	1000
scalar . 	xi 	1
scalar three_caches_scenario_3_links_network.content_distribution 	repo-0 	4
scalar three_caches_scenario_3_links_network.content_distribution 	repo-1 	5
scalar three_caches_scenario_3_links_network.content_distribution 	repo-2 	6
scalar three_caches_scenario_3_links_network.content_distribution 	client-0 	0
scalar three_caches_scenario_3_links_network.content_distribution 	repo-0_card 	20021
scalar three_caches_scenario_3_links_network.content_distribution 	repo-1_card 	39941
scalar three_caches_scenario_3_links_network.content_distribution 	repo-2_card 	40038
scalar three_caches_scenario_3_links_network.statistics 	p_hit 	0.27616456814167
scalar three_caches_scenario_3_links_network.statistics 	interests 	50466.285714286
scalar three_caches_scenario_3_links_network.statistics 	data 	24768.714285714
scalar three_caches_scenario_3_links_network.statistics 	hdistance 	1.3197022509075
scalar three_caches_scenario_3_links_network.statistics 	avg_time 	0
scalar three_caches_scenario_3_links_network.statistics 	downloads 	179883
scalar three_caches_scenario_3_links_network.statistics 	total_cost 	95920
scalar three_caches_scenario_3_links_network.statistics 	total_replicas 	100000
scalar three_caches_scenario_3_links_network.statistics 	interests_sent 	179883
scalar three_caches_scenario_3_links_network.node[0].core_layer 	interests[0] 	179883
scalar three_caches_scenario_3_links_network.node[0].core_layer 	data[0] 	91057
scalar three_caches_scenario_3_links_network.node[0].core_layer 	repo_int[0] 	82324
scalar three_caches_scenario_3_links_network.node[0].content_store 	p_hit[0] 	0.4937987469633
scalar three_caches_scenario_3_links_network.node[0].content_store 	hits[0] 	88826
scalar three_caches_scenario_3_links_network.node[0].content_store 	misses[0] 	91057
scalar three_caches_scenario_3_links_network.node[0].content_store 	decision_yes[0] 	474
scalar three_caches_scenario_3_links_network.node[0].content_store 	decision_no[0] 	90583
scalar three_caches_scenario_3_links_network.node[1].core_layer 	interests[1] 	18313
scalar three_caches_scenario_3_links_network.node[1].core_layer 	data[1] 	18313
scalar three_caches_scenario_3_links_network.node[1].content_store 	p_hit[1] 	0
scalar three_caches_scenario_3_links_network.node[1].content_store 	hits[1] 	0
scalar three_caches_scenario_3_links_network.node[1].content_store 	misses[1] 	18313
scalar three_caches_scenario_3_links_network.node[1].content_store 	decision_yes[1] 	0
scalar three_caches_scenario_3_links_network.node[1].content_store 	decision_no[1] 	18313
scalar three_caches_scenario_3_links_network.node[2].core_layer 	interests[2] 	36251
scalar three_caches_scenario_3_links_network.node[2].core_layer 	data[2] 	32102
scalar three_caches_scenario_3_links_network.node[2].content_store 	p_hit[2] 	0.11445201511682
scalar three_caches_scenario_3_links_network.node[2].content_store 	hits[2] 	4149
scalar three_caches_scenario_3_links_network.node[2].content_store 	misses[2] 	32102
scalar three_caches_scenario_3_links_network.node[2].content_store 	decision_yes[2] 	169
scalar three_caches_scenario_3_links_network.node[2].content_store 	decision_no[2] 	31933
scalar three_caches_scenario_3_links_network.node[3].core_layer 	interests[3] 	36493
scalar three_caches_scenario_3_links_network.node[3].core_layer 	data[3] 	31909
scalar three_caches_scenario_3_links_network.node[3].content_store 	p_hit[3] 	0.12561313128545
scalar three_caches_scenario_3_links_network.node[3].content_store 	hits[3] 	4584
scalar three_caches_scenario_3_links_network.node[3].content_store 	misses[3] 	31909
scalar three_caches_scenario_3_links_network.node[3].content_store 	decision_yes[3] 	153
scalar three_caches_scenario_3_links_network.node[3].content_store 	decision_no[3] 	31756
scalar three_caches_scenario_3_links_network.node[4].core_layer 	interests[4] 	18313
scalar three_caches_scenario_3_links_network.node[4].core_layer 	repo_load[4] 	18313
scalar three_caches_scenario_3_links_network.node[4].core_layer 	data[4] 	0
scalar three_caches_scenario_3_links_network.node[4].content_store 	p_hit[4] 	0
scalar three_caches_scenario_3_links_network.node[4].content_store 	hits[4] 	0
scalar three_caches_scenario_3_links_network.node[4].content_store 	misses[4] 	18313
scalar three_caches_scenario_3_links_network.node[4].content_store 	decision_yes[4] 	0
scalar three_caches_scenario_3_links_network.node[4].content_store 	decision_no[4] 	18313
scalar three_caches_scenario_3_links_network.node[5].core_layer 	interests[5] 	32102
scalar three_caches_scenario_3_links_network.node[5].core_layer 	repo_load[5] 	32102
scalar three_caches_scenario_3_links_network.node[5].core_layer 	data[5] 	0
scalar three_caches_scenario_3_links_network.node[5].content_store 	p_hit[5] 	0
scalar three_caches_scenario_3_links_network.node[5].content_store 	hits[5] 	0
scalar three_caches_scenario_3_links_network.node[5].content_store 	misses[5] 	32102
scalar three_caches_scenario_3_links_network.node[5].content_store 	decision_yes[5] 	0
scalar three_caches_scenario_3_links_network.node[5].content_store 	decision_no[5] 	32102
scalar three_caches_scenario_3_links_network.node[6].core_layer 	interests[6] 	31909
scalar three_caches_scenario_3_links_network.node[6].core_layer 	repo_load[6] 	31909
scalar three_caches_scenario_3_links_network.node[6].core_layer 	data[6] 	0
scalar three_caches_scenario_3_links_network.node[6].content_store 	p_hit[6] 	0
scalar three_caches_scenario_3_links_network.node[6].content_store 	hits[6] 	0
scalar three_caches_scenario_3_links_network.node[6].content_store 	misses[6] 	31909
scalar three_caches_scenario_3_links_network.node[6].content_store 	decision_yes[6] 	0
scalar three_caches_scenario_3_links_network.node[6].content_store 	decision_no[6] 	31909
scalar three_caches_scenario_3_links_network.client[0] 	hdistance[0] 	1.3197022509075
scalar three_caches_scenario_3_links_network.client[0] 	downloads[0] 	179883
scalar three_caches_scenario_3_links_network.client[0] 	avg_time[0] 	0
scalar three_caches_scenario_3_links_network.client[0] 	interests_sent[0] 	179883
