version 2
run General-72-20140418-15:11:18-1499
attr D lce
attr F nrr
attr R lru
attr a 0.8
attr configname General
attr csize 10
attr ctlg 10^6
attr datetime 20140418-15:11:18
attr experiment General
attr inifile omnetpp.ini
attr iterationvars "$net=simple_scenario, $rep=1, $priceratiovalue=6, $a=0.8, $ctlg=10^6, $F=nrr, $ttl=1000, $D=lce, $R=lru, $csize=10"
attr iterationvars2 "$net=simple_scenario, $rep=1, $priceratiovalue=6, $a=0.8, $ctlg=10^6, $F=nrr, $ttl=1000, $D=lce, $R=lru, $csize=10, $repetition=0"
attr measurement "$net=simple_scenario, $rep=1, $priceratiovalue=6, $a=0.8, $ctlg=10^6, $F=nrr, $ttl=1000, $D=lce, $R=lru, $csize=10"
attr net simple_scenario
attr network networks.${net=simple_scenario}_network
attr priceratiovalue 6
attr processid 1499
attr rep 1
attr repetition 0
attr replication #0
attr resultdir results
attr runnumber 72
attr seedset 1
attr ttl 1000

scalar . 	a 	0.8
scalar . 	csize 	10
scalar . 	priceratiovalue 	6
scalar . 	rep 	1
scalar . 	ttl 	1000
scalar simple_scenario_network.content_distribution 	repo-0 	3
scalar simple_scenario_network.content_distribution 	repo-1 	4
scalar simple_scenario_network.content_distribution 	client-0 	0
scalar simple_scenario_network.content_distribution 	repo-0_card 	500011
scalar simple_scenario_network.content_distribution 	repo-1_card 	499989
scalar simple_scenario_network.statistics 	p_hit 	0.002379920098695
scalar simple_scenario_network.statistics 	interests 	107482.6
scalar simple_scenario_network.statistics 	data 	71525.2
scalar simple_scenario_network.statistics 	hdistance 	2.9820509825516
scalar simple_scenario_network.statistics 	avg_time 	0.001999863913
scalar simple_scenario_network.statistics 	downloads 	179787
scalar simple_scenario_network.statistics 	total_cost 	90090
scalar simple_scenario_network.node[0].core_layer 	interests[0] 	179787
scalar simple_scenario_network.node[0].core_layer 	data[0] 	179118
scalar simple_scenario_network.node[0].core_layer 	repo_int[0] 	178508
scalar simple_scenario_network.node[0].content_store 	p_hit[0] 	0.0037210699327538
scalar simple_scenario_network.node[0].content_store 	hits[0] 	669
scalar simple_scenario_network.node[0].content_store 	misses[0] 	179118
scalar simple_scenario_network.node[1].core_layer 	interests[1] 	88272
scalar simple_scenario_network.node[1].core_layer 	data[1] 	88083
scalar simple_scenario_network.node[1].content_store 	p_hit[1] 	0.0021411092985318
scalar simple_scenario_network.node[1].content_store 	hits[1] 	189
scalar simple_scenario_network.node[1].content_store 	misses[1] 	88083
scalar simple_scenario_network.node[2].core_layer 	interests[2] 	90846
scalar simple_scenario_network.node[2].core_layer 	data[2] 	90425
scalar simple_scenario_network.node[2].content_store 	p_hit[2] 	0.0046342161460053
scalar simple_scenario_network.node[2].content_store 	hits[2] 	421
scalar simple_scenario_network.node[2].content_store 	misses[2] 	90425
scalar simple_scenario_network.node[3].core_layer 	interests[3] 	88083
scalar simple_scenario_network.node[3].core_layer 	repo_load[3] 	88083
scalar simple_scenario_network.node[3].core_layer 	data[3] 	0
scalar simple_scenario_network.node[3].content_store 	p_hit[3] 	0
scalar simple_scenario_network.node[3].content_store 	hits[3] 	0
scalar simple_scenario_network.node[3].content_store 	misses[3] 	88083
scalar simple_scenario_network.node[4].core_layer 	interests[4] 	90425
scalar simple_scenario_network.node[4].core_layer 	repo_load[4] 	90425
scalar simple_scenario_network.node[4].core_layer 	data[4] 	0
scalar simple_scenario_network.node[4].content_store 	p_hit[4] 	0
scalar simple_scenario_network.node[4].content_store 	hits[4] 	0
scalar simple_scenario_network.node[4].content_store 	misses[4] 	90425
scalar simple_scenario_network.client[0] 	hdistance[0] 	2.9820509825516
scalar simple_scenario_network.client[0] 	downloads[0] 	179787
scalar simple_scenario_network.client[0] 	avg_time[0] 	0.001999863913
