version 2
run General-3953-20140423-20:11:57-31033
attr D prob_cache
attr F nrr
attr R lru
attr a 1.2
attr configname General
attr csize 2
attr ctlg 10^3
attr datetime 20140423-20:11:57
attr experiment General
attr inifile omnetpp.ini
attr iterationvars "$net=simple_scenario, $rep=11, $priceratiovalue=10, $a=1.2, $ctlg=10^3, $F=nrr, $ttl=1000, $D=prob_cache, $R=lru, $csize=2"
attr iterationvars2 "$net=simple_scenario, $rep=11, $priceratiovalue=10, $a=1.2, $ctlg=10^3, $F=nrr, $ttl=1000, $D=prob_cache, $R=lru, $csize=2, $repetition=0"
attr measurement "$net=simple_scenario, $rep=11, $priceratiovalue=10, $a=1.2, $ctlg=10^3, $F=nrr, $ttl=1000, $D=prob_cache, $R=lru, $csize=2"
attr net simple_scenario
attr network networks.${net=simple_scenario}_network
attr priceratiovalue 10
attr processid 31033
attr rep 11
attr repetition 0
attr replication #0
attr resultdir results
attr runnumber 3953
attr seedset 11
attr ttl 1000

scalar . 	a 	1.2
scalar . 	csize 	2
scalar . 	priceratiovalue 	10
scalar . 	rep 	11
scalar . 	ttl 	1000
scalar simple_scenario_network.content_distribution 	repo-0 	3
scalar simple_scenario_network.content_distribution 	repo-1 	4
scalar simple_scenario_network.content_distribution 	client-0 	0
scalar simple_scenario_network.content_distribution 	repo-0_card 	503
scalar simple_scenario_network.content_distribution 	repo-1_card 	497
scalar simple_scenario_network.statistics 	p_hit 	0.11604624186022
scalar simple_scenario_network.statistics 	interests 	91034.4
scalar simple_scenario_network.statistics 	data 	54969.4
scalar simple_scenario_network.statistics 	hdistance 	2.2312546790517
scalar simple_scenario_network.statistics 	avg_time 	0.001986105203
scalar simple_scenario_network.statistics 	downloads 	180325
scalar simple_scenario_network.statistics 	total_cost 	76481
scalar simple_scenario_network.node[0].core_layer 	interests[0] 	180325
scalar simple_scenario_network.node[0].core_layer 	data[0] 	147343
scalar simple_scenario_network.node[0].core_layer 	repo_int[0] 	127504
scalar simple_scenario_network.node[0].content_store 	p_hit[0] 	0.18290309164009
scalar simple_scenario_network.node[0].content_store 	hits[0] 	32982
scalar simple_scenario_network.node[0].content_store 	misses[0] 	147343
scalar simple_scenario_network.node[1].core_layer 	interests[1] 	53456
scalar simple_scenario_network.node[1].core_layer 	data[1] 	48193
scalar simple_scenario_network.node[1].content_store 	p_hit[1] 	0.098454803950913
scalar simple_scenario_network.node[1].content_store 	hits[1] 	5263
scalar simple_scenario_network.node[1].content_store 	misses[1] 	48193
scalar simple_scenario_network.node[2].core_layer 	interests[2] 	93887
scalar simple_scenario_network.node[2].core_layer 	data[2] 	79311
scalar simple_scenario_network.node[2].content_store 	p_hit[2] 	0.15525046066016
scalar simple_scenario_network.node[2].content_store 	hits[2] 	14576
scalar simple_scenario_network.node[2].content_store 	misses[2] 	79311
scalar simple_scenario_network.node[3].core_layer 	interests[3] 	48193
scalar simple_scenario_network.node[3].core_layer 	repo_load[3] 	48193
scalar simple_scenario_network.node[3].core_layer 	data[3] 	0
scalar simple_scenario_network.node[3].content_store 	p_hit[3] 	0
scalar simple_scenario_network.node[3].content_store 	hits[3] 	0
scalar simple_scenario_network.node[3].content_store 	misses[3] 	48193
scalar simple_scenario_network.node[4].core_layer 	interests[4] 	79311
scalar simple_scenario_network.node[4].core_layer 	repo_load[4] 	79311
scalar simple_scenario_network.node[4].core_layer 	data[4] 	0
scalar simple_scenario_network.node[4].content_store 	p_hit[4] 	0
scalar simple_scenario_network.node[4].content_store 	hits[4] 	0
scalar simple_scenario_network.node[4].content_store 	misses[4] 	79311
scalar simple_scenario_network.client[0] 	hdistance[0] 	2.2312546790517
scalar simple_scenario_network.client[0] 	downloads[0] 	180325
scalar simple_scenario_network.client[0] 	avg_time[0] 	0.001986105203
