version 2
run General-1445-20140422-20:09:25-28299
attr D costprob0.01
attr F nrr
attr R lru
attr a 0
attr configname General
attr csize 10
attr ctlg 10^3
attr datetime 20140422-20:09:25
attr experiment General
attr inifile omnetpp.ini
attr iterationvars "$net=simple_scenario, $rep=13, $priceratiovalue=1, $a=0, $ctlg=10^3, $F=nrr, $ttl=1000, $D=costprob0.01, $R=lru, $csize=10"
attr iterationvars2 "$net=simple_scenario, $rep=13, $priceratiovalue=1, $a=0, $ctlg=10^3, $F=nrr, $ttl=1000, $D=costprob0.01, $R=lru, $csize=10, $repetition=0"
attr measurement "$net=simple_scenario, $rep=13, $priceratiovalue=1, $a=0, $ctlg=10^3, $F=nrr, $ttl=1000, $D=costprob0.01, $R=lru, $csize=10"
attr net simple_scenario
attr network networks.${net=simple_scenario}_network
attr priceratiovalue 1
attr processid 28299
attr rep 13
attr repetition 0
attr replication #0
attr resultdir results
attr runnumber 1445
attr seedset 13
attr ttl 1000

scalar . 	a 	0
scalar . 	csize 	10
scalar . 	priceratiovalue 	1
scalar . 	rep 	13
scalar . 	ttl 	1000
scalar simple_scenario_network.content_distribution 	repo-0 	3
scalar simple_scenario_network.content_distribution 	repo-1 	4
scalar simple_scenario_network.content_distribution 	client-0 	0
scalar simple_scenario_network.content_distribution 	repo-0_card 	509
scalar simple_scenario_network.content_distribution 	repo-1_card 	491
scalar simple_scenario_network.statistics 	p_hit 	0.010027812171871
scalar simple_scenario_network.statistics 	interests 	106284.4
scalar simple_scenario_network.statistics 	data 	70380.2
scalar simple_scenario_network.statistics 	hdistance 	2.9305377613886
scalar simple_scenario_network.statistics 	avg_time 	0.001999783832
scalar simple_scenario_network.statistics 	downloads 	179522
scalar simple_scenario_network.statistics 	total_cost 	87096
scalar simple_scenario_network.node[0].core_layer 	interests[0] 	179521
scalar simple_scenario_network.node[0].core_layer 	data[0] 	177709
scalar simple_scenario_network.node[0].core_layer 	repo_int[0] 	174192
scalar simple_scenario_network.node[0].content_store 	p_hit[0] 	0.010093526662619
scalar simple_scenario_network.node[0].content_store 	hits[0] 	1812
scalar simple_scenario_network.node[0].content_store 	misses[0] 	177709
scalar simple_scenario_network.node[1].core_layer 	interests[1] 	90433
scalar simple_scenario_network.node[1].core_layer 	data[1] 	88694
scalar simple_scenario_network.node[1].content_store 	p_hit[1] 	0.019229705970166
scalar simple_scenario_network.node[1].content_store 	hits[1] 	1739
scalar simple_scenario_network.node[1].content_store 	misses[1] 	88694
scalar simple_scenario_network.node[2].core_layer 	interests[2] 	87276
scalar simple_scenario_network.node[2].core_layer 	data[2] 	85498
scalar simple_scenario_network.node[2].content_store 	p_hit[2] 	0.02037215271094
scalar simple_scenario_network.node[2].content_store 	hits[2] 	1778
scalar simple_scenario_network.node[2].content_store 	misses[2] 	85498
scalar simple_scenario_network.node[3].core_layer 	interests[3] 	88694
scalar simple_scenario_network.node[3].core_layer 	repo_load[3] 	88694
scalar simple_scenario_network.node[3].core_layer 	data[3] 	0
scalar simple_scenario_network.node[3].content_store 	p_hit[3] 	0
scalar simple_scenario_network.node[3].content_store 	hits[3] 	0
scalar simple_scenario_network.node[3].content_store 	misses[3] 	88694
scalar simple_scenario_network.node[4].core_layer 	interests[4] 	85498
scalar simple_scenario_network.node[4].core_layer 	repo_load[4] 	85498
scalar simple_scenario_network.node[4].core_layer 	data[4] 	0
scalar simple_scenario_network.node[4].content_store 	p_hit[4] 	0
scalar simple_scenario_network.node[4].content_store 	hits[4] 	0
scalar simple_scenario_network.node[4].content_store 	misses[4] 	85498
scalar simple_scenario_network.client[0] 	hdistance[0] 	2.9305377613886
scalar simple_scenario_network.client[0] 	downloads[0] 	179522
scalar simple_scenario_network.client[0] 	avg_time[0] 	0.001999783832
