version 2
run General-1626-20140421-20:38:51-16393
attr D lce
attr F nrr
attr R lru
attr a 0.8
attr configname General
attr csize 10
attr ctlg 10^3
attr datetime 20140421-20:38:51
attr experiment General
attr inifile omnetpp.ini
attr iterationvars "$net=simple_scenario, $rep=33, $priceratiovalue=2, $a=0.8, $ctlg=10^3, $F=nrr, $ttl=1000, $D=lce, $R=lru, $csize=10"
attr iterationvars2 "$net=simple_scenario, $rep=33, $priceratiovalue=2, $a=0.8, $ctlg=10^3, $F=nrr, $ttl=1000, $D=lce, $R=lru, $csize=10, $repetition=0"
attr measurement "$net=simple_scenario, $rep=33, $priceratiovalue=2, $a=0.8, $ctlg=10^3, $F=nrr, $ttl=1000, $D=lce, $R=lru, $csize=10"
attr net simple_scenario
attr network networks.${net=simple_scenario}_network
attr priceratiovalue 2
attr processid 16393
attr rep 33
attr repetition 0
attr replication #0
attr resultdir results
attr runnumber 1626
attr seedset 33
attr ttl 1000

scalar . 	a 	0.8
scalar . 	csize 	10
scalar . 	priceratiovalue 	2
scalar . 	rep 	33
scalar . 	ttl 	1000
scalar simple_scenario_network.content_distribution 	repo-0 	3
scalar simple_scenario_network.content_distribution 	repo-1 	4
scalar simple_scenario_network.content_distribution 	client-0 	0
scalar simple_scenario_network.content_distribution 	repo-0_card 	513
scalar simple_scenario_network.content_distribution 	repo-1_card 	487
scalar simple_scenario_network.statistics 	p_hit 	0.048652740961509
scalar simple_scenario_network.statistics 	interests 	100121.8
scalar simple_scenario_network.statistics 	data 	64147.6
scalar simple_scenario_network.statistics 	hdistance 	2.6477567131817
scalar simple_scenario_network.statistics 	avg_time 	0.001998087107
scalar simple_scenario_network.statistics 	downloads 	179870
scalar simple_scenario_network.statistics 	total_cost 	76560
scalar simple_scenario_network.node[0].core_layer 	interests[0] 	179871
scalar simple_scenario_network.node[0].core_layer 	data[0] 	165223
scalar simple_scenario_network.node[0].core_layer 	repo_int[0] 	155515
scalar simple_scenario_network.node[0].content_store 	p_hit[0] 	0.081436140345025
scalar simple_scenario_network.node[0].content_store 	hits[0] 	14648
scalar simple_scenario_network.node[0].content_store 	misses[0] 	165223
scalar simple_scenario_network.node[1].core_layer 	interests[1] 	86774
scalar simple_scenario_network.node[1].core_layer 	data[1] 	81349
scalar simple_scenario_network.node[1].content_store 	p_hit[1] 	0.062518726807569
scalar simple_scenario_network.node[1].content_store 	hits[1] 	5425
scalar simple_scenario_network.node[1].content_store 	misses[1] 	81349
scalar simple_scenario_network.node[2].core_layer 	interests[2] 	78449
scalar simple_scenario_network.node[2].core_layer 	data[2] 	74166
scalar simple_scenario_network.node[2].content_store 	p_hit[2] 	0.054595979553595
scalar simple_scenario_network.node[2].content_store 	hits[2] 	4283
scalar simple_scenario_network.node[2].content_store 	misses[2] 	74166
scalar simple_scenario_network.node[3].core_layer 	interests[3] 	81349
scalar simple_scenario_network.node[3].core_layer 	repo_load[3] 	81349
scalar simple_scenario_network.node[3].core_layer 	data[3] 	0
scalar simple_scenario_network.node[3].content_store 	p_hit[3] 	0
scalar simple_scenario_network.node[3].content_store 	hits[3] 	0
scalar simple_scenario_network.node[3].content_store 	misses[3] 	81349
scalar simple_scenario_network.node[4].core_layer 	interests[4] 	74166
scalar simple_scenario_network.node[4].core_layer 	repo_load[4] 	74166
scalar simple_scenario_network.node[4].core_layer 	data[4] 	0
scalar simple_scenario_network.node[4].content_store 	p_hit[4] 	0
scalar simple_scenario_network.node[4].content_store 	hits[4] 	0
scalar simple_scenario_network.node[4].content_store 	misses[4] 	74166
scalar simple_scenario_network.client[0] 	hdistance[0] 	2.6477567131817
scalar simple_scenario_network.client[0] 	downloads[0] 	179870
scalar simple_scenario_network.client[0] 	avg_time[0] 	0.001998087107
