version 2
run General-1686-20140421-20:40:12-16456
attr D lce
attr F nrr
attr R lru
attr a 0.8
attr configname General
attr csize 10
attr ctlg 10^3
attr datetime 20140421-20:40:12
attr experiment General
attr inifile omnetpp.ini
attr iterationvars "$net=simple_scenario, $rep=34, $priceratiovalue=2, $a=0.8, $ctlg=10^3, $F=nrr, $ttl=1000, $D=lce, $R=lru, $csize=10"
attr iterationvars2 "$net=simple_scenario, $rep=34, $priceratiovalue=2, $a=0.8, $ctlg=10^3, $F=nrr, $ttl=1000, $D=lce, $R=lru, $csize=10, $repetition=0"
attr measurement "$net=simple_scenario, $rep=34, $priceratiovalue=2, $a=0.8, $ctlg=10^3, $F=nrr, $ttl=1000, $D=lce, $R=lru, $csize=10"
attr net simple_scenario
attr network networks.${net=simple_scenario}_network
attr priceratiovalue 2
attr processid 16456
attr rep 34
attr repetition 0
attr replication #0
attr resultdir results
attr runnumber 1686
attr seedset 34
attr ttl 1000

scalar . 	a 	0.8
scalar . 	csize 	10
scalar . 	priceratiovalue 	2
scalar . 	rep 	34
scalar . 	ttl 	1000
scalar simple_scenario_network.content_distribution 	repo-0 	3
scalar simple_scenario_network.content_distribution 	repo-1 	4
scalar simple_scenario_network.content_distribution 	client-0 	0
scalar simple_scenario_network.content_distribution 	repo-0_card 	538
scalar simple_scenario_network.content_distribution 	repo-1_card 	462
scalar simple_scenario_network.statistics 	p_hit 	0.049485742686964
scalar simple_scenario_network.statistics 	interests 	99794.4
scalar simple_scenario_network.statistics 	data 	63904.2
scalar simple_scenario_network.statistics 	hdistance 	2.6429498860413
scalar simple_scenario_network.statistics 	avg_time 	0.001998129592
scalar simple_scenario_network.statistics 	downloads 	179451
scalar simple_scenario_network.statistics 	total_cost 	76001
scalar simple_scenario_network.node[0].core_layer 	interests[0] 	179451
scalar simple_scenario_network.node[0].core_layer 	data[0] 	164762
scalar simple_scenario_network.node[0].core_layer 	repo_int[0] 	154759
scalar simple_scenario_network.node[0].content_store 	p_hit[0] 	0.081855213958128
scalar simple_scenario_network.node[0].content_store 	hits[0] 	14689
scalar simple_scenario_network.node[0].content_store 	misses[0] 	164762
scalar simple_scenario_network.node[1].core_layer 	interests[1] 	85748
scalar simple_scenario_network.node[1].core_layer 	data[1] 	81512
scalar simple_scenario_network.node[1].content_store 	p_hit[1] 	0.049400569109484
scalar simple_scenario_network.node[1].content_store 	hits[1] 	4236
scalar simple_scenario_network.node[1].content_store 	misses[1] 	81512
scalar simple_scenario_network.node[2].core_layer 	interests[2] 	79014
scalar simple_scenario_network.node[2].core_layer 	data[2] 	73247
scalar simple_scenario_network.node[2].content_store 	p_hit[2] 	0.072987065583314
scalar simple_scenario_network.node[2].content_store 	hits[2] 	5767
scalar simple_scenario_network.node[2].content_store 	misses[2] 	73247
scalar simple_scenario_network.node[3].core_layer 	interests[3] 	81512
scalar simple_scenario_network.node[3].core_layer 	repo_load[3] 	81512
scalar simple_scenario_network.node[3].core_layer 	data[3] 	0
scalar simple_scenario_network.node[3].content_store 	p_hit[3] 	0
scalar simple_scenario_network.node[3].content_store 	hits[3] 	0
scalar simple_scenario_network.node[3].content_store 	misses[3] 	81512
scalar simple_scenario_network.node[4].core_layer 	interests[4] 	73247
scalar simple_scenario_network.node[4].core_layer 	repo_load[4] 	73247
scalar simple_scenario_network.node[4].core_layer 	data[4] 	0
scalar simple_scenario_network.node[4].content_store 	p_hit[4] 	0
scalar simple_scenario_network.node[4].content_store 	hits[4] 	0
scalar simple_scenario_network.node[4].content_store 	misses[4] 	73247
scalar simple_scenario_network.client[0] 	hdistance[0] 	2.6429498860413
scalar simple_scenario_network.client[0] 	downloads[0] 	179451
scalar simple_scenario_network.client[0] 	avg_time[0] 	0.001998129592
