version 2
run General-306-20140421-20:08:23-14969
attr D lce
attr F nrr
attr R lru
attr a 0.8
attr configname General
attr csize 10
attr ctlg 10^3
attr datetime 20140421-20:08:23
attr experiment General
attr inifile omnetpp.ini
attr iterationvars "$net=simple_scenario, $rep=11, $priceratiovalue=2, $a=0.8, $ctlg=10^3, $F=nrr, $ttl=1000, $D=lce, $R=lru, $csize=10"
attr iterationvars2 "$net=simple_scenario, $rep=11, $priceratiovalue=2, $a=0.8, $ctlg=10^3, $F=nrr, $ttl=1000, $D=lce, $R=lru, $csize=10, $repetition=0"
attr measurement "$net=simple_scenario, $rep=11, $priceratiovalue=2, $a=0.8, $ctlg=10^3, $F=nrr, $ttl=1000, $D=lce, $R=lru, $csize=10"
attr net simple_scenario
attr network networks.${net=simple_scenario}_network
attr priceratiovalue 2
attr processid 14969
attr rep 11
attr repetition 0
attr replication #0
attr resultdir results
attr runnumber 306
attr seedset 11
attr ttl 1000

scalar . 	a 	0.8
scalar . 	csize 	10
scalar . 	priceratiovalue 	2
scalar . 	rep 	11
scalar . 	ttl 	1000
scalar simple_scenario_network.content_distribution 	repo-0 	3
scalar simple_scenario_network.content_distribution 	repo-1 	4
scalar simple_scenario_network.content_distribution 	client-0 	0
scalar simple_scenario_network.content_distribution 	repo-0_card 	503
scalar simple_scenario_network.content_distribution 	repo-1_card 	497
scalar simple_scenario_network.statistics 	p_hit 	0.047904502919299
scalar simple_scenario_network.statistics 	interests 	100024
scalar simple_scenario_network.statistics 	data 	64105.2
scalar simple_scenario_network.statistics 	hdistance 	2.651326595952
scalar simple_scenario_network.statistics 	avg_time 	0.001998036583
scalar simple_scenario_network.statistics 	downloads 	179595
scalar simple_scenario_network.statistics 	total_cost 	80015
scalar simple_scenario_network.node[0].core_layer 	interests[0] 	179594
scalar simple_scenario_network.node[0].core_layer 	data[0] 	164890
scalar simple_scenario_network.node[0].core_layer 	repo_int[0] 	155636
scalar simple_scenario_network.node[0].content_store 	p_hit[0] 	0.081873559250309
scalar simple_scenario_network.node[0].content_store 	hits[0] 	14704
scalar simple_scenario_network.node[0].content_store 	misses[0] 	164890
scalar simple_scenario_network.node[1].core_layer 	interests[1] 	74479
scalar simple_scenario_network.node[1].core_layer 	data[1] 	71224
scalar simple_scenario_network.node[1].content_store 	p_hit[1] 	0.043703594301749
scalar simple_scenario_network.node[1].content_store 	hits[1] 	3255
scalar simple_scenario_network.node[1].content_store 	misses[1] 	71224
scalar simple_scenario_network.node[2].core_layer 	interests[2] 	90411
scalar simple_scenario_network.node[2].core_layer 	data[2] 	84412
scalar simple_scenario_network.node[2].content_store 	p_hit[2] 	0.066352545597328
scalar simple_scenario_network.node[2].content_store 	hits[2] 	5999
scalar simple_scenario_network.node[2].content_store 	misses[2] 	84412
scalar simple_scenario_network.node[3].core_layer 	interests[3] 	71224
scalar simple_scenario_network.node[3].core_layer 	repo_load[3] 	71224
scalar simple_scenario_network.node[3].core_layer 	data[3] 	0
scalar simple_scenario_network.node[3].content_store 	p_hit[3] 	0
scalar simple_scenario_network.node[3].content_store 	hits[3] 	0
scalar simple_scenario_network.node[3].content_store 	misses[3] 	71224
scalar simple_scenario_network.node[4].core_layer 	interests[4] 	84412
scalar simple_scenario_network.node[4].core_layer 	repo_load[4] 	84412
scalar simple_scenario_network.node[4].core_layer 	data[4] 	0
scalar simple_scenario_network.node[4].content_store 	p_hit[4] 	0
scalar simple_scenario_network.node[4].content_store 	hits[4] 	0
scalar simple_scenario_network.node[4].content_store 	misses[4] 	84412
scalar simple_scenario_network.client[0] 	hdistance[0] 	2.651326595952
scalar simple_scenario_network.client[0] 	downloads[0] 	179595
scalar simple_scenario_network.client[0] 	avg_time[0] 	0.001998036583
