version 2
run General-48-20140708-17:55:14-17262
attr D costprobtailcons
attr F nrr
attr R lru
attr a 1
attr configname General
attr csize 1e3
attr ctlg 1e5
attr datetime 20140708-17:55:14
attr experiment General
attr inifile omnetpp.ini
attr iterationvars "$net=geant_cost, $rep=5, $priceratiovalue=10, $weights=0.333_0.333_0.334, $lambda=100, $a=1, $ctlg=1e5, $F=nrr, $ttl=1000, $D=costprobtailcons, $xi=1, $R=lru, $csize=1e3, $pricebits=0, $window=60, $variance=0.05, $mytime=1800"
attr iterationvars2 "$net=geant_cost, $rep=5, $priceratiovalue=10, $weights=0.333_0.333_0.334, $lambda=100, $a=1, $ctlg=1e5, $F=nrr, $ttl=1000, $D=costprobtailcons, $xi=1, $R=lru, $csize=1e3, $pricebits=0, $window=60, $variance=0.05, $mytime=1800, $repetition=0"
attr lambda 100
attr measurement "$net=geant_cost, $rep=5, $priceratiovalue=10, $weights=0.333_0.333_0.334, $lambda=100, $a=1, $ctlg=1e5, $F=nrr, $ttl=1000, $D=costprobtailcons, $xi=1, $R=lru, $csize=1e3, $pricebits=0, $window=60, $variance=0.05, $mytime=1800"
attr mytime 1800
attr net geant_cost
attr network "networks.${net=abilene_cost, geant_cost}_network"
attr pricebits 0
attr priceratiovalue 10
attr processid 17262
attr rep 5
attr repetition 0
attr replication #0
attr resultdir results
attr runnumber 48
attr seedset 5
attr ttl 1000
attr variance 0.05
attr weights 0.333_0.333_0.334
attr window 60
attr xi 1

scalar . 	a 	1
scalar . 	csize 	1e3
scalar . 	ctlg 	1e5
scalar . 	lambda 	100
scalar . 	mytime 	1800
scalar . 	pricebits 	0
scalar . 	priceratiovalue 	10
scalar . 	rep 	5
scalar . 	ttl 	1000
scalar . 	variance 	0.05
scalar . 	window 	60
scalar . 	xi 	1
scalar geant_cost_network.content_distribution 	repo-0 	22
scalar geant_cost_network.content_distribution 	repo-1 	23
scalar geant_cost_network.content_distribution 	repo-2 	24
scalar geant_cost_network.content_distribution 	client-0 	20
scalar geant_cost_network.content_distribution 	client-1 	10
scalar geant_cost_network.content_distribution 	client-2 	12
scalar geant_cost_network.content_distribution 	client-3 	9
scalar geant_cost_network.content_distribution 	client-4 	5
scalar geant_cost_network.content_distribution 	repo-0_card 	33102
scalar geant_cost_network.content_distribution 	repo-1_card 	33495
scalar geant_cost_network.content_distribution 	repo-2_card 	33403
scalar geant_cost_network.statistics 	repo_popularity[0] 	0.44346789261525
scalar geant_cost_network.statistics 	repo_popularity[1] 	0.29134602320581
scalar geant_cost_network.statistics 	repo_popularity[2] 	0.26518608417894
scalar geant_cost_network.statistics 	stabilization_time 	36060
scalar geant_cost_network.node[7].face$o[4].channel 	price[7] 	0
scalar geant_cost_network.node[7].face$o[4].channel 	represented_price[7] 	0
scalar geant_cost_network.node[8].face$o[3].channel 	price[8] 	0
scalar geant_cost_network.node[8].face$o[3].channel 	represented_price[8] 	0
scalar geant_cost_network.node[21].face$o[5].channel 	price[21] 	0
scalar geant_cost_network.node[21].face$o[5].channel 	represented_price[21] 	0
scalar geant_cost_network.node[22].face$o[1].channel 	price[22] 	0
scalar geant_cost_network.node[22].face$o[1].channel 	represented_price[22] 	0
scalar geant_cost_network.node[23].face$o[1].channel 	price[23] 	1
scalar geant_cost_network.node[23].face$o[1].channel 	represented_price[23] 	1
scalar geant_cost_network.node[24].face$o[1].channel 	price[24] 	10
scalar geant_cost_network.node[24].face$o[1].channel 	represented_price[24] 	10
scalar geant_cost_network.statistics 	p_hit 	0.064470231695895
scalar geant_cost_network.statistics 	interests 	147931.84
scalar geant_cost_network.statistics 	data 	111954.12
scalar geant_cost_network.statistics 	hdistance 	3.8709583533061
scalar geant_cost_network.statistics 	avg_time 	0.006834175307
scalar geant_cost_network.statistics 	downloads 	893488
scalar geant_cost_network.statistics 	total_cost 	1373639
scalar geant_cost_network.statistics 	total_replicas 	100000
scalar geant_cost_network.statistics 	inner_hit 	0.26889672832763
scalar geant_cost_network.statistics 	interests_sent 	899439
scalar geant_cost_network.node[0].core_layer 	interests[0] 	0
scalar geant_cost_network.node[0].core_layer 	data[0] 	0
scalar geant_cost_network.node[0].core_layer 	repo_int[0] 	653232
scalar geant_cost_network.node[0].content_store 	p_hit[0] 	-nan
scalar geant_cost_network.node[0].content_store 	hits[0] 	0
scalar geant_cost_network.node[0].content_store 	misses[0] 	0
scalar geant_cost_network.node[0].content_store 	decision_yes[0] 	0
scalar geant_cost_network.node[0].content_store 	decision_no[0] 	0
scalar geant_cost_network.node[0].content_store 	decision_ratio[0] 	0
scalar geant_cost_network.node[0].content_store 	correction_factor[0] 	1.9094965282486e-316
scalar geant_cost_network.node[0].content_store 	xi[0] 	1
scalar geant_cost_network.node[1].core_layer 	interests[1] 	0
scalar geant_cost_network.node[1].core_layer 	data[1] 	0
scalar geant_cost_network.node[1].content_store 	p_hit[1] 	-nan
scalar geant_cost_network.node[1].content_store 	hits[1] 	0
scalar geant_cost_network.node[1].content_store 	misses[1] 	0
scalar geant_cost_network.node[1].content_store 	decision_yes[1] 	0
scalar geant_cost_network.node[1].content_store 	decision_no[1] 	0
scalar geant_cost_network.node[1].content_store 	decision_ratio[1] 	0
scalar geant_cost_network.node[1].content_store 	correction_factor[1] 	1.9111372214453e-316
scalar geant_cost_network.node[1].content_store 	xi[1] 	1
scalar geant_cost_network.node[2].core_layer 	interests[2] 	0
scalar geant_cost_network.node[2].core_layer 	data[2] 	0
scalar geant_cost_network.node[2].content_store 	p_hit[2] 	-nan
scalar geant_cost_network.node[2].content_store 	hits[2] 	0
scalar geant_cost_network.node[2].content_store 	misses[2] 	0
scalar geant_cost_network.node[2].content_store 	decision_yes[2] 	0
scalar geant_cost_network.node[2].content_store 	decision_no[2] 	0
scalar geant_cost_network.node[2].content_store 	decision_ratio[2] 	0
scalar geant_cost_network.node[2].content_store 	correction_factor[2] 	1.9113988786113e-316
scalar geant_cost_network.node[2].content_store 	xi[2] 	1
scalar geant_cost_network.node[3].core_layer 	interests[3] 	217185
scalar geant_cost_network.node[3].core_layer 	data[3] 	199044
scalar geant_cost_network.node[3].content_store 	p_hit[3] 	0.083352901903907
scalar geant_cost_network.node[3].content_store 	hits[3] 	18103
scalar geant_cost_network.node[3].content_store 	misses[3] 	199082
scalar geant_cost_network.node[3].content_store 	decision_yes[3] 	0
scalar geant_cost_network.node[3].content_store 	decision_no[3] 	199044
scalar geant_cost_network.node[3].content_store 	decision_ratio[3] 	0
scalar geant_cost_network.node[3].content_store 	correction_factor[3] 	1.9094332878459e-316
scalar geant_cost_network.node[3].content_store 	xi[3] 	1
scalar geant_cost_network.node[4].core_layer 	interests[4] 	300569
scalar geant_cost_network.node[4].core_layer 	data[4] 	294842
scalar geant_cost_network.node[4].content_store 	p_hit[4] 	0.017041012213502
scalar geant_cost_network.node[4].content_store 	hits[4] 	5122
scalar geant_cost_network.node[4].content_store 	misses[4] 	295447
scalar geant_cost_network.node[4].content_store 	decision_yes[4] 	0
scalar geant_cost_network.node[4].content_store 	decision_no[4] 	294842
scalar geant_cost_network.node[4].content_store 	decision_ratio[4] 	0
scalar geant_cost_network.node[4].content_store 	correction_factor[4] 	1.9119625087001e-316
scalar geant_cost_network.node[4].content_store 	xi[4] 	1
scalar geant_cost_network.node[5].core_layer 	interests[5] 	193158
scalar geant_cost_network.node[5].core_layer 	data[5] 	175141
scalar geant_cost_network.node[5].content_store 	p_hit[5] 	0.084428291864691
scalar geant_cost_network.node[5].content_store 	hits[5] 	16308
scalar geant_cost_network.node[5].content_store 	misses[5] 	176850
scalar geant_cost_network.node[5].content_store 	decision_yes[5] 	0
scalar geant_cost_network.node[5].content_store 	decision_no[5] 	175141
scalar geant_cost_network.node[5].content_store 	decision_ratio[5] 	0
scalar geant_cost_network.node[5].content_store 	correction_factor[5] 	1.9122352329366e-316
scalar geant_cost_network.node[5].content_store 	xi[5] 	1
scalar geant_cost_network.node[6].core_layer 	interests[6] 	120262
scalar geant_cost_network.node[6].core_layer 	data[6] 	114479
scalar geant_cost_network.node[6].content_store 	p_hit[6] 	0.048094992599491
scalar geant_cost_network.node[6].content_store 	hits[6] 	5784
scalar geant_cost_network.node[6].content_store 	misses[6] 	114478
scalar geant_cost_network.node[6].content_store 	decision_yes[6] 	0
scalar geant_cost_network.node[6].content_store 	decision_no[6] 	114479
scalar geant_cost_network.node[6].content_store 	decision_ratio[6] 	0
scalar geant_cost_network.node[6].content_store 	correction_factor[6] 	1.912505585658e-316
scalar geant_cost_network.node[6].content_store 	xi[6] 	1
scalar geant_cost_network.node[7].core_layer 	interests[7] 	481371
scalar geant_cost_network.node[7].core_layer 	data[7] 	466392
scalar geant_cost_network.node[7].content_store 	p_hit[7] 	0.031096597011453
scalar geant_cost_network.node[7].content_store 	hits[7] 	14969
scalar geant_cost_network.node[7].content_store 	misses[7] 	466402
scalar geant_cost_network.node[7].content_store 	decision_yes[7] 	0
scalar geant_cost_network.node[7].content_store 	decision_no[7] 	466392
scalar geant_cost_network.node[7].content_store 	decision_ratio[7] 	0
scalar geant_cost_network.node[7].content_store 	correction_factor[7] 	1.9127727763593e-316
scalar geant_cost_network.node[7].content_store 	xi[7] 	1
scalar geant_cost_network.node[8].core_layer 	interests[8] 	344248
scalar geant_cost_network.node[8].core_layer 	data[8] 	305047
scalar geant_cost_network.node[8].content_store 	p_hit[8] 	0.11387429992331
scalar geant_cost_network.node[8].content_store 	hits[8] 	39201
scalar geant_cost_network.node[8].content_store 	misses[8] 	305047
scalar geant_cost_network.node[8].content_store 	decision_yes[8] 	0
scalar geant_cost_network.node[8].content_store 	decision_no[8] 	305047
scalar geant_cost_network.node[8].content_store 	decision_ratio[8] 	0
scalar geant_cost_network.node[8].content_store 	correction_factor[8] 	1.913050243626e-316
scalar geant_cost_network.node[8].content_store 	xi[8] 	1
scalar geant_cost_network.node[9].core_layer 	interests[9] 	394689
scalar geant_cost_network.node[9].core_layer 	data[9] 	357787
scalar geant_cost_network.node[9].content_store 	p_hit[9] 	0.089434972852043
scalar geant_cost_network.node[9].content_store 	hits[9] 	35299
scalar geant_cost_network.node[9].content_store 	misses[9] 	359390
scalar geant_cost_network.node[9].content_store 	decision_yes[9] 	0
scalar geant_cost_network.node[9].content_store 	decision_no[9] 	357787
scalar geant_cost_network.node[9].content_store 	decision_ratio[9] 	0
scalar geant_cost_network.node[9].content_store 	correction_factor[9] 	1.911331290431e-316
scalar geant_cost_network.node[9].content_store 	xi[9] 	1
scalar geant_cost_network.node[10].core_layer 	interests[10] 	185898
scalar geant_cost_network.node[10].core_layer 	data[10] 	170201
scalar geant_cost_network.node[10].content_store 	p_hit[10] 	0.079075622115354
scalar geant_cost_network.node[10].content_store 	hits[10] 	14700
scalar geant_cost_network.node[10].content_store 	misses[10] 	171198
scalar geant_cost_network.node[10].content_store 	decision_yes[10] 	1
scalar geant_cost_network.node[10].content_store 	decision_no[10] 	170200
scalar geant_cost_network.node[10].content_store 	decision_ratio[10] 	5.8754061374493e-06
scalar geant_cost_network.node[10].content_store 	correction_factor[10] 	1.9120229823352e-316
scalar geant_cost_network.node[10].content_store 	xi[10] 	1
scalar geant_cost_network.node[11].core_layer 	interests[11] 	0
scalar geant_cost_network.node[11].core_layer 	data[11] 	0
scalar geant_cost_network.node[11].content_store 	p_hit[11] 	-nan
scalar geant_cost_network.node[11].content_store 	hits[11] 	0
scalar geant_cost_network.node[11].content_store 	misses[11] 	0
scalar geant_cost_network.node[11].content_store 	decision_yes[11] 	0
scalar geant_cost_network.node[11].content_store 	decision_no[11] 	0
scalar geant_cost_network.node[11].content_store 	decision_ratio[11] 	0
scalar geant_cost_network.node[11].content_store 	correction_factor[11] 	1.911331290431e-316
scalar geant_cost_network.node[11].content_store 	xi[11] 	1
scalar geant_cost_network.node[12].core_layer 	interests[12] 	274646
scalar geant_cost_network.node[12].core_layer 	data[12] 	239598
scalar geant_cost_network.node[12].content_store 	p_hit[12] 	0.12375931198707
scalar geant_cost_network.node[12].content_store 	hits[12] 	33990
scalar geant_cost_network.node[12].content_store 	misses[12] 	240656
scalar geant_cost_network.node[12].content_store 	decision_yes[12] 	0
scalar geant_cost_network.node[12].content_store 	decision_no[12] 	239598
scalar geant_cost_network.node[12].content_store 	decision_ratio[12] 	0
scalar geant_cost_network.node[12].content_store 	correction_factor[12] 	1.9120229823352e-316
scalar geant_cost_network.node[12].content_store 	xi[12] 	1
scalar geant_cost_network.node[13].core_layer 	interests[13] 	8133
scalar geant_cost_network.node[13].core_layer 	data[13] 	8132
scalar geant_cost_network.node[13].content_store 	p_hit[13] 	0
scalar geant_cost_network.node[13].content_store 	hits[13] 	0
scalar geant_cost_network.node[13].content_store 	misses[13] 	8133
scalar geant_cost_network.node[13].content_store 	decision_yes[13] 	0
scalar geant_cost_network.node[13].content_store 	decision_no[13] 	8132
scalar geant_cost_network.node[13].content_store 	decision_ratio[13] 	0
scalar geant_cost_network.node[13].content_store 	correction_factor[13] 	1.9120229823352e-316
scalar geant_cost_network.node[13].content_store 	xi[13] 	1
scalar geant_cost_network.node[14].core_layer 	interests[14] 	48588
scalar geant_cost_network.node[14].core_layer 	data[14] 	36077
scalar geant_cost_network.node[14].content_store 	p_hit[14] 	0.25749156170248
scalar geant_cost_network.node[14].content_store 	hits[14] 	12511
scalar geant_cost_network.node[14].content_store 	misses[14] 	36077
scalar geant_cost_network.node[14].content_store 	decision_yes[14] 	0
scalar geant_cost_network.node[14].content_store 	decision_no[14] 	36077
scalar geant_cost_network.node[14].content_store 	decision_ratio[14] 	0
scalar geant_cost_network.node[14].content_store 	correction_factor[14] 	1.9120229823352e-316
scalar geant_cost_network.node[14].content_store 	xi[14] 	1
scalar geant_cost_network.node[15].core_layer 	interests[15] 	0
scalar geant_cost_network.node[15].core_layer 	data[15] 	0
scalar geant_cost_network.node[15].content_store 	p_hit[15] 	-nan
scalar geant_cost_network.node[15].content_store 	hits[15] 	0
scalar geant_cost_network.node[15].content_store 	misses[15] 	0
scalar geant_cost_network.node[15].content_store 	decision_yes[15] 	0
scalar geant_cost_network.node[15].content_store 	decision_no[15] 	0
scalar geant_cost_network.node[15].content_store 	decision_ratio[15] 	0
scalar geant_cost_network.node[15].content_store 	correction_factor[15] 	1.9120229823352e-316
scalar geant_cost_network.node[15].content_store 	xi[15] 	1
scalar geant_cost_network.node[16].core_layer 	interests[16] 	0
scalar geant_cost_network.node[16].core_layer 	data[16] 	0
scalar geant_cost_network.node[16].content_store 	p_hit[16] 	-nan
scalar geant_cost_network.node[16].content_store 	hits[16] 	0
scalar geant_cost_network.node[16].content_store 	misses[16] 	0
scalar geant_cost_network.node[16].content_store 	decision_yes[16] 	0
scalar geant_cost_network.node[16].content_store 	decision_no[16] 	0
scalar geant_cost_network.node[16].content_store 	decision_ratio[16] 	0
scalar geant_cost_network.node[16].content_store 	correction_factor[16] 	1.9100396052065e-316
scalar geant_cost_network.node[16].content_store 	xi[16] 	1
scalar geant_cost_network.node[17].core_layer 	interests[17] 	0
scalar geant_cost_network.node[17].core_layer 	data[17] 	0
scalar geant_cost_network.node[17].content_store 	p_hit[17] 	-nan
scalar geant_cost_network.node[17].content_store 	hits[17] 	0
scalar geant_cost_network.node[17].content_store 	misses[17] 	0
scalar geant_cost_network.node[17].content_store 	decision_yes[17] 	0
scalar geant_cost_network.node[17].content_store 	decision_no[17] 	0
scalar geant_cost_network.node[17].content_store 	decision_ratio[17] 	0
scalar geant_cost_network.node[17].content_store 	correction_factor[17] 	1.9100712254078e-316
scalar geant_cost_network.node[17].content_store 	xi[17] 	1
scalar geant_cost_network.node[18].core_layer 	interests[18] 	145815
scalar geant_cost_network.node[18].core_layer 	data[18] 	137966
scalar geant_cost_network.node[18].content_store 	p_hit[18] 	0.053821623289785
scalar geant_cost_network.node[18].content_store 	hits[18] 	7848
scalar geant_cost_network.node[18].content_store 	misses[18] 	137967
scalar geant_cost_network.node[18].content_store 	decision_yes[18] 	0
scalar geant_cost_network.node[18].content_store 	decision_no[18] 	137966
scalar geant_cost_network.node[18].content_store 	decision_ratio[18] 	0
scalar geant_cost_network.node[18].content_store 	correction_factor[18] 	1.9137154536116e-316
scalar geant_cost_network.node[18].content_store 	xi[18] 	1
scalar geant_cost_network.node[19].core_layer 	interests[19] 	0
scalar geant_cost_network.node[19].core_layer 	data[19] 	0
scalar geant_cost_network.node[19].content_store 	p_hit[19] 	-nan
scalar geant_cost_network.node[19].content_store 	hits[19] 	0
scalar geant_cost_network.node[19].content_store 	misses[19] 	0
scalar geant_cost_network.node[19].content_store 	decision_yes[19] 	0
scalar geant_cost_network.node[19].content_store 	decision_no[19] 	0
scalar geant_cost_network.node[19].content_store 	decision_ratio[19] 	0
scalar geant_cost_network.node[19].content_store 	correction_factor[19] 	1.9121423485952e-316
scalar geant_cost_network.node[19].content_store 	xi[19] 	1
scalar geant_cost_network.node[20].core_layer 	interests[20] 	184670
scalar geant_cost_network.node[20].core_layer 	data[20] 	170528
scalar geant_cost_network.node[20].content_store 	p_hit[20] 	0.067049331239508
scalar geant_cost_network.node[20].content_store 	hits[20] 	12382
scalar geant_cost_network.node[20].content_store 	misses[20] 	172288
scalar geant_cost_network.node[20].content_store 	decision_yes[20] 	0
scalar geant_cost_network.node[20].content_store 	decision_no[20] 	170528
scalar geant_cost_network.node[20].content_store 	decision_ratio[20] 	0
scalar geant_cost_network.node[20].content_store 	correction_factor[20] 	1.9153344079198e-316
scalar geant_cost_network.node[20].content_store 	xi[20] 	1
scalar geant_cost_network.node[21].core_layer 	interests[21] 	145832
scalar geant_cost_network.node[21].core_layer 	data[21] 	123619
scalar geant_cost_network.node[21].content_store 	p_hit[21] 	0.15231910691755
scalar geant_cost_network.node[21].content_store 	hits[21] 	22213
scalar geant_cost_network.node[21].content_store 	misses[21] 	123619
scalar geant_cost_network.node[21].content_store 	decision_yes[21] 	0
scalar geant_cost_network.node[21].content_store 	decision_no[21] 	123619
scalar geant_cost_network.node[21].content_store 	decision_ratio[21] 	0
scalar geant_cost_network.node[21].content_store 	correction_factor[21] 	1.9153668186262e-316
scalar geant_cost_network.node[21].content_store 	xi[21] 	1
scalar geant_cost_network.node[22].core_layer 	interests[22] 	392164
scalar geant_cost_network.node[22].core_layer 	repo_load[22] 	392164
scalar geant_cost_network.node[22].core_layer 	data[22] 	0
scalar geant_cost_network.node[22].content_store 	p_hit[22] 	0
scalar geant_cost_network.node[22].content_store 	hits[22] 	0
scalar geant_cost_network.node[22].content_store 	misses[22] 	392164
scalar geant_cost_network.node[22].content_store 	decision_yes[22] 	0
scalar geant_cost_network.node[22].content_store 	decision_no[22] 	392164
scalar geant_cost_network.node[22].content_store 	decision_ratio[22] 	0
scalar geant_cost_network.node[23].core_layer 	interests[23] 	137449
scalar geant_cost_network.node[23].core_layer 	repo_load[23] 	137449
scalar geant_cost_network.node[23].core_layer 	data[23] 	0
scalar geant_cost_network.node[23].content_store 	p_hit[23] 	0
scalar geant_cost_network.node[23].content_store 	hits[23] 	0
scalar geant_cost_network.node[23].content_store 	misses[23] 	137449
scalar geant_cost_network.node[23].content_store 	decision_yes[23] 	0
scalar geant_cost_network.node[23].content_store 	decision_no[23] 	137449
scalar geant_cost_network.node[23].content_store 	decision_ratio[23] 	0
scalar geant_cost_network.node[24].core_layer 	interests[24] 	123619
scalar geant_cost_network.node[24].core_layer 	repo_load[24] 	123619
scalar geant_cost_network.node[24].core_layer 	data[24] 	0
scalar geant_cost_network.node[24].content_store 	p_hit[24] 	0
scalar geant_cost_network.node[24].content_store 	hits[24] 	0
scalar geant_cost_network.node[24].content_store 	misses[24] 	123619
scalar geant_cost_network.node[24].content_store 	decision_yes[24] 	0
scalar geant_cost_network.node[24].content_store 	decision_no[24] 	123619
scalar geant_cost_network.node[24].content_store 	decision_ratio[24] 	0
scalar geant_cost_network.client[5] 	hdistance[5] 	3.5535525813478
scalar geant_cost_network.client[5] 	downloads[5] 	178124
scalar geant_cost_network.client[5] 	avg_time[5] 	0.009386447578
scalar geant_cost_network.client[5] 	interests_sent[5] 	179831
scalar geant_cost_network.client[9] 	hdistance[9] 	3.4138245922725
scalar geant_cost_network.client[9] 	downloads[9] 	179593
scalar geant_cost_network.client[9] 	avg_time[9] 	0.004636583796
scalar geant_cost_network.client[9] 	interests_sent[9] 	180142
scalar geant_cost_network.client[10] 	hdistance[10] 	4.3495754540322
scalar geant_cost_network.client[10] 	downloads[10] 	178897
scalar geant_cost_network.client[10] 	avg_time[10] 	0.006490904851
scalar geant_cost_network.client[10] 	interests_sent[10] 	179894
scalar geant_cost_network.client[12] 	hdistance[12] 	3.8860212888538
scalar geant_cost_network.client[12] 	downloads[12] 	178779
scalar geant_cost_network.client[12] 	avg_time[12] 	0.005888456373
scalar geant_cost_network.client[12] 	interests_sent[12] 	179717
scalar geant_cost_network.client[20] 	hdistance[20] 	4.1518178500239
scalar geant_cost_network.client[20] 	downloads[20] 	178095
scalar geant_cost_network.client[20] 	avg_time[20] 	0.00776848394
scalar geant_cost_network.client[20] 	interests_sent[20] 	179855
