version 2
run General-46-20140708-17:26:57-17253
attr D costprobtailcons
attr F nrr
attr R lru
attr a 1
attr configname General
attr csize 1e3
attr ctlg 1e5
attr datetime 20140708-17:26:57
attr experiment General
attr inifile omnetpp.ini
attr iterationvars "$net=geant_cost, $rep=4, $priceratiovalue=10, $weights=0.333_0.333_0.334, $lambda=100, $a=1, $ctlg=1e5, $F=nrr, $ttl=1000, $D=costprobtailcons, $xi=1, $R=lru, $csize=1e3, $pricebits=0, $window=60, $variance=0.05, $mytime=1800"
attr iterationvars2 "$net=geant_cost, $rep=4, $priceratiovalue=10, $weights=0.333_0.333_0.334, $lambda=100, $a=1, $ctlg=1e5, $F=nrr, $ttl=1000, $D=costprobtailcons, $xi=1, $R=lru, $csize=1e3, $pricebits=0, $window=60, $variance=0.05, $mytime=1800, $repetition=0"
attr lambda 100
attr measurement "$net=geant_cost, $rep=4, $priceratiovalue=10, $weights=0.333_0.333_0.334, $lambda=100, $a=1, $ctlg=1e5, $F=nrr, $ttl=1000, $D=costprobtailcons, $xi=1, $R=lru, $csize=1e3, $pricebits=0, $window=60, $variance=0.05, $mytime=1800"
attr mytime 1800
attr net geant_cost
attr network "networks.${net=abilene_cost, geant_cost}_network"
attr pricebits 0
attr priceratiovalue 10
attr processid 17253
attr rep 4
attr repetition 0
attr replication #0
attr resultdir results
attr runnumber 46
attr seedset 4
attr ttl 1000
attr variance 0.05
attr weights 0.333_0.333_0.334
attr window 60
attr xi 1

scalar . 	a 	1
scalar . 	csize 	1e3
scalar . 	ctlg 	1e5
scalar . 	lambda 	100
scalar . 	mytime 	1800
scalar . 	pricebits 	0
scalar . 	priceratiovalue 	10
scalar . 	rep 	4
scalar . 	ttl 	1000
scalar . 	variance 	0.05
scalar . 	window 	60
scalar . 	xi 	1
scalar geant_cost_network.content_distribution 	repo-0 	22
scalar geant_cost_network.content_distribution 	repo-1 	23
scalar geant_cost_network.content_distribution 	repo-2 	24
scalar geant_cost_network.content_distribution 	client-0 	20
scalar geant_cost_network.content_distribution 	client-1 	10
scalar geant_cost_network.content_distribution 	client-2 	12
scalar geant_cost_network.content_distribution 	client-3 	9
scalar geant_cost_network.content_distribution 	client-4 	5
scalar geant_cost_network.content_distribution 	repo-0_card 	33272
scalar geant_cost_network.content_distribution 	repo-1_card 	33152
scalar geant_cost_network.content_distribution 	repo-2_card 	33576
scalar geant_cost_network.statistics 	repo_popularity[0] 	0.28234107170654
scalar geant_cost_network.statistics 	repo_popularity[1] 	0.30413978820018
scalar geant_cost_network.statistics 	repo_popularity[2] 	0.41351914009327
scalar geant_cost_network.statistics 	stabilization_time 	36060
scalar geant_cost_network.node[7].face$o[4].channel 	price[7] 	0
scalar geant_cost_network.node[7].face$o[4].channel 	represented_price[7] 	0
scalar geant_cost_network.node[8].face$o[3].channel 	price[8] 	0
scalar geant_cost_network.node[8].face$o[3].channel 	represented_price[8] 	0
scalar geant_cost_network.node[21].face$o[5].channel 	price[21] 	0
scalar geant_cost_network.node[21].face$o[5].channel 	represented_price[21] 	0
scalar geant_cost_network.node[22].face$o[1].channel 	price[22] 	0
scalar geant_cost_network.node[22].face$o[1].channel 	represented_price[22] 	0
scalar geant_cost_network.node[23].face$o[1].channel 	price[23] 	1
scalar geant_cost_network.node[23].face$o[1].channel 	represented_price[23] 	1
scalar geant_cost_network.node[24].face$o[1].channel 	price[24] 	10
scalar geant_cost_network.node[24].face$o[1].channel 	represented_price[24] 	10
scalar geant_cost_network.statistics 	p_hit 	0.11524899392293
scalar geant_cost_network.statistics 	interests 	132971.92
scalar geant_cost_network.statistics 	data 	96988.2
scalar geant_cost_network.statistics 	hdistance 	3.2794633821349
scalar geant_cost_network.statistics 	avg_time 	0.006376834665
scalar geant_cost_network.statistics 	downloads 	896557
scalar geant_cost_network.statistics 	total_cost 	1396415
scalar geant_cost_network.statistics 	total_replicas 	100000
scalar geant_cost_network.statistics 	inner_hit 	0.42847136322621
scalar geant_cost_network.statistics 	interests_sent 	899598
scalar geant_cost_network.node[0].core_layer 	interests[0] 	0
scalar geant_cost_network.node[0].core_layer 	data[0] 	0
scalar geant_cost_network.node[0].core_layer 	repo_int[0] 	512408
scalar geant_cost_network.node[0].content_store 	p_hit[0] 	-nan
scalar geant_cost_network.node[0].content_store 	hits[0] 	0
scalar geant_cost_network.node[0].content_store 	misses[0] 	0
scalar geant_cost_network.node[0].content_store 	decision_yes[0] 	0
scalar geant_cost_network.node[0].content_store 	decision_no[0] 	0
scalar geant_cost_network.node[0].content_store 	decision_ratio[0] 	0
scalar geant_cost_network.node[0].content_store 	correction_factor[0] 	1.7036869618069e-316
scalar geant_cost_network.node[0].content_store 	xi[0] 	1
scalar geant_cost_network.node[1].core_layer 	interests[1] 	0
scalar geant_cost_network.node[1].core_layer 	data[1] 	0
scalar geant_cost_network.node[1].content_store 	p_hit[1] 	-nan
scalar geant_cost_network.node[1].content_store 	hits[1] 	0
scalar geant_cost_network.node[1].content_store 	misses[1] 	0
scalar geant_cost_network.node[1].content_store 	decision_yes[1] 	0
scalar geant_cost_network.node[1].content_store 	decision_no[1] 	0
scalar geant_cost_network.node[1].content_store 	decision_ratio[1] 	0
scalar geant_cost_network.node[1].content_store 	correction_factor[1] 	1.7053276550036e-316
scalar geant_cost_network.node[1].content_store 	xi[1] 	1
scalar geant_cost_network.node[2].core_layer 	interests[2] 	0
scalar geant_cost_network.node[2].core_layer 	data[2] 	0
scalar geant_cost_network.node[2].content_store 	p_hit[2] 	-nan
scalar geant_cost_network.node[2].content_store 	hits[2] 	0
scalar geant_cost_network.node[2].content_store 	misses[2] 	0
scalar geant_cost_network.node[2].content_store 	decision_yes[2] 	0
scalar geant_cost_network.node[2].content_store 	decision_no[2] 	0
scalar geant_cost_network.node[2].content_store 	decision_ratio[2] 	0
scalar geant_cost_network.node[2].content_store 	correction_factor[2] 	1.7055893121696e-316
scalar geant_cost_network.node[2].content_store 	xi[2] 	1
scalar geant_cost_network.node[3].core_layer 	interests[3] 	212303
scalar geant_cost_network.node[3].core_layer 	data[3] 	168209
scalar geant_cost_network.node[3].content_store 	p_hit[3] 	0.20768430026896
scalar geant_cost_network.node[3].content_store 	hits[3] 	44092
scalar geant_cost_network.node[3].content_store 	misses[3] 	168211
scalar geant_cost_network.node[3].content_store 	decision_yes[3] 	0
scalar geant_cost_network.node[3].content_store 	decision_no[3] 	168209
scalar geant_cost_network.node[3].content_store 	decision_ratio[3] 	0
scalar geant_cost_network.node[3].content_store 	correction_factor[3] 	1.7036237214042e-316
scalar geant_cost_network.node[3].content_store 	xi[3] 	1
scalar geant_cost_network.node[4].core_layer 	interests[4] 	250431
scalar geant_cost_network.node[4].core_layer 	data[4] 	244603
scalar geant_cost_network.node[4].content_store 	p_hit[4] 	0.023040278559763
scalar geant_cost_network.node[4].content_store 	hits[4] 	5770
scalar geant_cost_network.node[4].content_store 	misses[4] 	244661
scalar geant_cost_network.node[4].content_store 	decision_yes[4] 	0
scalar geant_cost_network.node[4].content_store 	decision_no[4] 	244603
scalar geant_cost_network.node[4].content_store 	decision_ratio[4] 	0
scalar geant_cost_network.node[4].content_store 	correction_factor[4] 	1.7061529422584e-316
scalar geant_cost_network.node[4].content_store 	xi[4] 	1
scalar geant_cost_network.node[5].core_layer 	interests[5] 	193294
scalar geant_cost_network.node[5].core_layer 	data[5] 	174727
scalar geant_cost_network.node[5].content_store 	p_hit[5] 	0.088828416815835
scalar geant_cost_network.node[5].content_store 	hits[5] 	17170
scalar geant_cost_network.node[5].content_store 	misses[5] 	176124
scalar geant_cost_network.node[5].content_store 	decision_yes[5] 	0
scalar geant_cost_network.node[5].content_store 	decision_no[5] 	174727
scalar geant_cost_network.node[5].content_store 	decision_ratio[5] 	0
scalar geant_cost_network.node[5].content_store 	correction_factor[5] 	1.7064256664949e-316
scalar geant_cost_network.node[5].content_store 	xi[5] 	1
scalar geant_cost_network.node[6].core_layer 	interests[6] 	96336
scalar geant_cost_network.node[6].core_layer 	data[6] 	90681
scalar geant_cost_network.node[6].content_store 	p_hit[6] 	0.058700797209766
scalar geant_cost_network.node[6].content_store 	hits[6] 	5655
scalar geant_cost_network.node[6].content_store 	misses[6] 	90681
scalar geant_cost_network.node[6].content_store 	decision_yes[6] 	0
scalar geant_cost_network.node[6].content_store 	decision_no[6] 	90681
scalar geant_cost_network.node[6].content_store 	decision_ratio[6] 	0
scalar geant_cost_network.node[6].content_store 	correction_factor[6] 	1.7066960192163e-316
scalar geant_cost_network.node[6].content_store 	xi[6] 	1
scalar geant_cost_network.node[7].core_layer 	interests[7] 	351026
scalar geant_cost_network.node[7].core_layer 	data[7] 	336202
scalar geant_cost_network.node[7].content_store 	p_hit[7] 	0.042042469788563
scalar geant_cost_network.node[7].content_store 	hits[7] 	14758
scalar geant_cost_network.node[7].content_store 	misses[7] 	336268
scalar geant_cost_network.node[7].content_store 	decision_yes[7] 	0
scalar geant_cost_network.node[7].content_store 	decision_no[7] 	336202
scalar geant_cost_network.node[7].content_store 	decision_ratio[7] 	0
scalar geant_cost_network.node[7].content_store 	correction_factor[7] 	1.7069632099176e-316
scalar geant_cost_network.node[7].content_store 	xi[7] 	1
scalar geant_cost_network.node[8].core_layer 	interests[8] 	298402
scalar geant_cost_network.node[8].core_layer 	data[8] 	243807
scalar geant_cost_network.node[8].content_store 	p_hit[8] 	0.18295453783822
scalar geant_cost_network.node[8].content_store 	hits[8] 	54594
scalar geant_cost_network.node[8].content_store 	misses[8] 	243808
scalar geant_cost_network.node[8].content_store 	decision_yes[8] 	0
scalar geant_cost_network.node[8].content_store 	decision_no[8] 	243807
scalar geant_cost_network.node[8].content_store 	decision_ratio[8] 	0
scalar geant_cost_network.node[8].content_store 	correction_factor[8] 	1.7072406771843e-316
scalar geant_cost_network.node[8].content_store 	xi[8] 	1
scalar geant_cost_network.node[9].core_layer 	interests[9] 	399017
scalar geant_cost_network.node[9].core_layer 	data[9] 	314869
scalar geant_cost_network.node[9].content_store 	p_hit[9] 	0.20941213031024
scalar geant_cost_network.node[9].content_store 	hits[9] 	83559
scalar geant_cost_network.node[9].content_store 	misses[9] 	315458
scalar geant_cost_network.node[9].content_store 	decision_yes[9] 	0
scalar geant_cost_network.node[9].content_store 	decision_no[9] 	314869
scalar geant_cost_network.node[9].content_store 	decision_ratio[9] 	0
scalar geant_cost_network.node[9].content_store 	correction_factor[9] 	1.7055217239893e-316
scalar geant_cost_network.node[9].content_store 	xi[9] 	1
scalar geant_cost_network.node[10].core_layer 	interests[10] 	185059
scalar geant_cost_network.node[10].core_layer 	data[10] 	159787
scalar geant_cost_network.node[10].content_store 	p_hit[10] 	0.13386001221232
scalar geant_cost_network.node[10].content_store 	hits[10] 	24772
scalar geant_cost_network.node[10].content_store 	misses[10] 	160287
scalar geant_cost_network.node[10].content_store 	decision_yes[10] 	0
scalar geant_cost_network.node[10].content_store 	decision_no[10] 	159787
scalar geant_cost_network.node[10].content_store 	decision_ratio[10] 	0
scalar geant_cost_network.node[10].content_store 	correction_factor[10] 	1.7062134158935e-316
scalar geant_cost_network.node[10].content_store 	xi[10] 	1
scalar geant_cost_network.node[11].core_layer 	interests[11] 	0
scalar geant_cost_network.node[11].core_layer 	data[11] 	0
scalar geant_cost_network.node[11].content_store 	p_hit[11] 	-nan
scalar geant_cost_network.node[11].content_store 	hits[11] 	0
scalar geant_cost_network.node[11].content_store 	misses[11] 	0
scalar geant_cost_network.node[11].content_store 	decision_yes[11] 	0
scalar geant_cost_network.node[11].content_store 	decision_no[11] 	0
scalar geant_cost_network.node[11].content_store 	decision_ratio[11] 	0
scalar geant_cost_network.node[11].content_store 	correction_factor[11] 	1.7055217239893e-316
scalar geant_cost_network.node[11].content_store 	xi[11] 	1
scalar geant_cost_network.node[12].core_layer 	interests[12] 	283332
scalar geant_cost_network.node[12].core_layer 	data[12] 	232854
scalar geant_cost_network.node[12].content_store 	p_hit[12] 	0.17549729645787
scalar geant_cost_network.node[12].content_store 	hits[12] 	49724
scalar geant_cost_network.node[12].content_store 	misses[12] 	233608
scalar geant_cost_network.node[12].content_store 	decision_yes[12] 	0
scalar geant_cost_network.node[12].content_store 	decision_no[12] 	232854
scalar geant_cost_network.node[12].content_store 	decision_ratio[12] 	0
scalar geant_cost_network.node[12].content_store 	correction_factor[12] 	1.7062134158935e-316
scalar geant_cost_network.node[12].content_store 	xi[12] 	1
scalar geant_cost_network.node[13].core_layer 	interests[13] 	9368
scalar geant_cost_network.node[13].core_layer 	data[13] 	9370
scalar geant_cost_network.node[13].content_store 	p_hit[13] 	0
scalar geant_cost_network.node[13].content_store 	hits[13] 	0
scalar geant_cost_network.node[13].content_store 	misses[13] 	9368
scalar geant_cost_network.node[13].content_store 	decision_yes[13] 	0
scalar geant_cost_network.node[13].content_store 	decision_no[13] 	9370
scalar geant_cost_network.node[13].content_store 	decision_ratio[13] 	0
scalar geant_cost_network.node[13].content_store 	correction_factor[13] 	1.7062134158935e-316
scalar geant_cost_network.node[13].content_store 	xi[13] 	1
scalar geant_cost_network.node[14].core_layer 	interests[14] 	51348
scalar geant_cost_network.node[14].core_layer 	data[14] 	38098
scalar geant_cost_network.node[14].content_store 	p_hit[14] 	0.25804315650074
scalar geant_cost_network.node[14].content_store 	hits[14] 	13250
scalar geant_cost_network.node[14].content_store 	misses[14] 	38098
scalar geant_cost_network.node[14].content_store 	decision_yes[14] 	0
scalar geant_cost_network.node[14].content_store 	decision_no[14] 	38098
scalar geant_cost_network.node[14].content_store 	decision_ratio[14] 	0
scalar geant_cost_network.node[14].content_store 	correction_factor[14] 	1.7062134158935e-316
scalar geant_cost_network.node[14].content_store 	xi[14] 	1
scalar geant_cost_network.node[15].core_layer 	interests[15] 	0
scalar geant_cost_network.node[15].core_layer 	data[15] 	0
scalar geant_cost_network.node[15].content_store 	p_hit[15] 	-nan
scalar geant_cost_network.node[15].content_store 	hits[15] 	0
scalar geant_cost_network.node[15].content_store 	misses[15] 	0
scalar geant_cost_network.node[15].content_store 	decision_yes[15] 	0
scalar geant_cost_network.node[15].content_store 	decision_no[15] 	0
scalar geant_cost_network.node[15].content_store 	decision_ratio[15] 	0
scalar geant_cost_network.node[15].content_store 	correction_factor[15] 	1.7062134158935e-316
scalar geant_cost_network.node[15].content_store 	xi[15] 	1
scalar geant_cost_network.node[16].core_layer 	interests[16] 	0
scalar geant_cost_network.node[16].core_layer 	data[16] 	0
scalar geant_cost_network.node[16].content_store 	p_hit[16] 	-nan
scalar geant_cost_network.node[16].content_store 	hits[16] 	0
scalar geant_cost_network.node[16].content_store 	misses[16] 	0
scalar geant_cost_network.node[16].content_store 	decision_yes[16] 	0
scalar geant_cost_network.node[16].content_store 	decision_no[16] 	0
scalar geant_cost_network.node[16].content_store 	decision_ratio[16] 	0
scalar geant_cost_network.node[16].content_store 	correction_factor[16] 	1.7042300387648e-316
scalar geant_cost_network.node[16].content_store 	xi[16] 	1
scalar geant_cost_network.node[17].core_layer 	interests[17] 	0
scalar geant_cost_network.node[17].core_layer 	data[17] 	0
scalar geant_cost_network.node[17].content_store 	p_hit[17] 	-nan
scalar geant_cost_network.node[17].content_store 	hits[17] 	0
scalar geant_cost_network.node[17].content_store 	misses[17] 	0
scalar geant_cost_network.node[17].content_store 	decision_yes[17] 	0
scalar geant_cost_network.node[17].content_store 	decision_no[17] 	0
scalar geant_cost_network.node[17].content_store 	decision_ratio[17] 	0
scalar geant_cost_network.node[17].content_store 	correction_factor[17] 	1.7042616589661e-316
scalar geant_cost_network.node[17].content_store 	xi[17] 	1
scalar geant_cost_network.node[18].core_layer 	interests[18] 	122224
scalar geant_cost_network.node[18].core_layer 	data[18] 	113867
scalar geant_cost_network.node[18].content_store 	p_hit[18] 	0.068374460007854
scalar geant_cost_network.node[18].content_store 	hits[18] 	8357
scalar geant_cost_network.node[18].content_store 	misses[18] 	113867
scalar geant_cost_network.node[18].content_store 	decision_yes[18] 	0
scalar geant_cost_network.node[18].content_store 	decision_no[18] 	113867
scalar geant_cost_network.node[18].content_store 	decision_ratio[18] 	0
scalar geant_cost_network.node[18].content_store 	correction_factor[18] 	1.7079058871699e-316
scalar geant_cost_network.node[18].content_store 	xi[18] 	1
scalar geant_cost_network.node[19].core_layer 	interests[19] 	0
scalar geant_cost_network.node[19].core_layer 	data[19] 	0
scalar geant_cost_network.node[19].content_store 	p_hit[19] 	-nan
scalar geant_cost_network.node[19].content_store 	hits[19] 	0
scalar geant_cost_network.node[19].content_store 	misses[19] 	0
scalar geant_cost_network.node[19].content_store 	decision_yes[19] 	0
scalar geant_cost_network.node[19].content_store 	decision_no[19] 	0
scalar geant_cost_network.node[19].content_store 	decision_ratio[19] 	0
scalar geant_cost_network.node[19].content_store 	correction_factor[19] 	1.7063327821535e-316
scalar geant_cost_network.node[19].content_store 	xi[19] 	1
scalar geant_cost_network.node[20].core_layer 	interests[20] 	184430
scalar geant_cost_network.node[20].core_layer 	data[20] 	171254
scalar geant_cost_network.node[20].content_store 	p_hit[20] 	0.067657105676951
scalar geant_cost_network.node[20].content_store 	hits[20] 	12478
scalar geant_cost_network.node[20].content_store 	misses[20] 	171952
scalar geant_cost_network.node[20].content_store 	decision_yes[20] 	0
scalar geant_cost_network.node[20].content_store 	decision_no[20] 	171254
scalar geant_cost_network.node[20].content_store 	decision_ratio[20] 	0
scalar geant_cost_network.node[20].content_store 	correction_factor[20] 	1.7095248414781e-316
scalar geant_cost_network.node[20].content_store 	xi[20] 	1
scalar geant_cost_network.node[21].core_layer 	interests[21] 	175320
scalar geant_cost_network.node[21].core_layer 	data[21] 	126377
scalar geant_cost_network.node[21].content_store 	p_hit[21] 	0.27916381473876
scalar geant_cost_network.node[21].content_store 	hits[21] 	48943
scalar geant_cost_network.node[21].content_store 	misses[21] 	126377
scalar geant_cost_network.node[21].content_store 	decision_yes[21] 	0
scalar geant_cost_network.node[21].content_store 	decision_no[21] 	126377
scalar geant_cost_network.node[21].content_store 	decision_ratio[21] 	0
scalar geant_cost_network.node[21].content_store 	correction_factor[21] 	1.7095572521845e-316
scalar geant_cost_network.node[21].content_store 	xi[21] 	1
scalar geant_cost_network.node[22].core_layer 	interests[22] 	253386
scalar geant_cost_network.node[22].core_layer 	repo_load[22] 	253386
scalar geant_cost_network.node[22].core_layer 	data[22] 	0
scalar geant_cost_network.node[22].content_store 	p_hit[22] 	0
scalar geant_cost_network.node[22].content_store 	hits[22] 	0
scalar geant_cost_network.node[22].content_store 	misses[22] 	253386
scalar geant_cost_network.node[22].content_store 	decision_yes[22] 	0
scalar geant_cost_network.node[22].content_store 	decision_no[22] 	253386
scalar geant_cost_network.node[22].content_store 	decision_ratio[22] 	0
scalar geant_cost_network.node[23].core_layer 	interests[23] 	132645
scalar geant_cost_network.node[23].core_layer 	repo_load[23] 	132645
scalar geant_cost_network.node[23].core_layer 	data[23] 	0
scalar geant_cost_network.node[23].content_store 	p_hit[23] 	0
scalar geant_cost_network.node[23].content_store 	hits[23] 	0
scalar geant_cost_network.node[23].content_store 	misses[23] 	132645
scalar geant_cost_network.node[23].content_store 	decision_yes[23] 	0
scalar geant_cost_network.node[23].content_store 	decision_no[23] 	132645
scalar geant_cost_network.node[23].content_store 	decision_ratio[23] 	0
scalar geant_cost_network.node[24].core_layer 	interests[24] 	126377
scalar geant_cost_network.node[24].core_layer 	repo_load[24] 	126377
scalar geant_cost_network.node[24].core_layer 	data[24] 	0
scalar geant_cost_network.node[24].content_store 	p_hit[24] 	0
scalar geant_cost_network.node[24].content_store 	hits[24] 	0
scalar geant_cost_network.node[24].content_store 	misses[24] 	126377
scalar geant_cost_network.node[24].content_store 	decision_yes[24] 	0
scalar geant_cost_network.node[24].content_store 	decision_no[24] 	126377
scalar geant_cost_network.node[24].content_store 	decision_ratio[24] 	0
scalar geant_cost_network.client[5] 	hdistance[5] 	3.1402855369336
scalar geant_cost_network.client[5] 	downloads[5] 	178821
scalar geant_cost_network.client[5] 	avg_time[5] 	0.009135792365
scalar geant_cost_network.client[5] 	interests_sent[5] 	180216
scalar geant_cost_network.client[9] 	hdistance[9] 	2.8290969564831
scalar geant_cost_network.client[9] 	downloads[9] 	179792
scalar geant_cost_network.client[9] 	avg_time[9] 	0.004502817422
scalar geant_cost_network.client[9] 	interests_sent[9] 	179992
scalar geant_cost_network.client[10] 	hdistance[10] 	3.7087916382843
scalar geant_cost_network.client[10] 	downloads[10] 	179102
scalar geant_cost_network.client[10] 	avg_time[10] 	0.00620558598
scalar geant_cost_network.client[10] 	interests_sent[10] 	179602
scalar geant_cost_network.client[12] 	hdistance[12] 	3.1592610500692
scalar geant_cost_network.client[12] 	downloads[12] 	179931
scalar geant_cost_network.client[12] 	avg_time[12] 	0.005377920727
scalar geant_cost_network.client[12] 	interests_sent[12] 	180179
scalar geant_cost_network.client[20] 	hdistance[20] 	3.5598817289043
scalar geant_cost_network.client[20] 	downloads[20] 	178911
scalar geant_cost_network.client[20] 	avg_time[20] 	0.006662056835
scalar geant_cost_network.client[20] 	interests_sent[20] 	179609
