version 2
run General-2817-20140502-06:32:11-11784
attr D fix0.001
attr F nrr
attr R lru
attr a 0.8
attr configname General
attr csize 1e3
attr ctlg 1e5
attr datetime 20140502-06:32:11
attr experiment General
attr inifile omnetpp.ini
attr iterationvars "$net=three_caches_scenario_3_links, $rep=5, $priceratiovalue=10, $weights=0.7_0.15_0.15, $a=0.8, $ctlg=1e5, $F=nrr, $ttl=1000, $D=fix0.001, $xi=1, $R=lru, $csize=1e3"
attr iterationvars2 "$net=three_caches_scenario_3_links, $rep=5, $priceratiovalue=10, $weights=0.7_0.15_0.15, $a=0.8, $ctlg=1e5, $F=nrr, $ttl=1000, $D=fix0.001, $xi=1, $R=lru, $csize=1e3, $repetition=0"
attr measurement "$net=three_caches_scenario_3_links, $rep=5, $priceratiovalue=10, $weights=0.7_0.15_0.15, $a=0.8, $ctlg=1e5, $F=nrr, $ttl=1000, $D=fix0.001, $xi=1, $R=lru, $csize=1e3"
attr net three_caches_scenario_3_links
attr network networks.${net=three_caches_scenario_3_links}_network
attr priceratiovalue 10
attr processid 11784
attr rep 5
attr repetition 0
attr replication #0
attr resultdir results
attr runnumber 2817
attr seedset 5
attr ttl 1000
attr weights 0.7_0.15_0.15
attr xi 1

scalar . 	a 	0.8
scalar . 	csize 	1e3
scalar . 	ctlg 	1e5
scalar . 	priceratiovalue 	10
scalar . 	rep 	5
scalar . 	ttl 	1000
scalar . 	xi 	1
scalar three_caches_scenario_3_links_network.content_distribution 	repo-0 	4
scalar three_caches_scenario_3_links_network.content_distribution 	repo-1 	5
scalar three_caches_scenario_3_links_network.content_distribution 	repo-2 	6
scalar three_caches_scenario_3_links_network.content_distribution 	client-0 	0
scalar three_caches_scenario_3_links_network.content_distribution 	repo-0_card 	70036
scalar three_caches_scenario_3_links_network.content_distribution 	repo-1_card 	14984
scalar three_caches_scenario_3_links_network.content_distribution 	repo-2_card 	14980
scalar three_caches_scenario_3_links_network.statistics 	p_hit 	0.10280906982164
scalar three_caches_scenario_3_links_network.statistics 	interests 	64357.857142857
scalar three_caches_scenario_3_links_network.statistics 	data 	38711.285714286
scalar three_caches_scenario_3_links_network.statistics 	hdistance 	1.7135568107127
scalar three_caches_scenario_3_links_network.statistics 	avg_time 	0
scalar three_caches_scenario_3_links_network.statistics 	downloads 	179526
scalar three_caches_scenario_3_links_network.statistics 	total_cost 	203644
scalar three_caches_scenario_3_links_network.statistics 	total_replicas 	100000
scalar three_caches_scenario_3_links_network.statistics 	interests_sent 	179526
scalar three_caches_scenario_3_links_network.node[0].core_layer 	interests[0] 	179526
scalar three_caches_scenario_3_links_network.node[0].core_layer 	data[0] 	137769
scalar three_caches_scenario_3_links_network.node[0].core_layer 	repo_int[0] 	133210
scalar three_caches_scenario_3_links_network.node[0].content_store 	p_hit[0] 	0.23259583570068
scalar three_caches_scenario_3_links_network.node[0].content_store 	hits[0] 	41757
scalar three_caches_scenario_3_links_network.node[0].content_store 	misses[0] 	137769
scalar three_caches_scenario_3_links_network.node[0].content_store 	decision_yes[0] 	142
scalar three_caches_scenario_3_links_network.node[0].content_store 	decision_no[0] 	137627
scalar three_caches_scenario_3_links_network.node[1].core_layer 	interests[1] 	96561
scalar three_caches_scenario_3_links_network.node[1].core_layer 	data[1] 	96561
scalar three_caches_scenario_3_links_network.node[1].content_store 	p_hit[1] 	0
scalar three_caches_scenario_3_links_network.node[1].content_store 	hits[1] 	0
scalar three_caches_scenario_3_links_network.node[1].content_store 	misses[1] 	96561
scalar three_caches_scenario_3_links_network.node[1].content_store 	decision_yes[1] 	0
scalar three_caches_scenario_3_links_network.node[1].content_store 	decision_no[1] 	96561
scalar three_caches_scenario_3_links_network.node[2].core_layer 	interests[2] 	20596
scalar three_caches_scenario_3_links_network.node[2].core_layer 	data[2] 	18094
scalar three_caches_scenario_3_links_network.node[2].content_store 	p_hit[2] 	0.12147989900952
scalar three_caches_scenario_3_links_network.node[2].content_store 	hits[2] 	2502
scalar three_caches_scenario_3_links_network.node[2].content_store 	misses[2] 	18094
scalar three_caches_scenario_3_links_network.node[2].content_store 	decision_yes[2] 	20
scalar three_caches_scenario_3_links_network.node[2].content_store 	decision_no[2] 	18074
scalar three_caches_scenario_3_links_network.node[3].core_layer 	interests[3] 	20612
scalar three_caches_scenario_3_links_network.node[3].core_layer 	data[3] 	18555
scalar three_caches_scenario_3_links_network.node[3].content_store 	p_hit[3] 	0.099796235202794
scalar three_caches_scenario_3_links_network.node[3].content_store 	hits[3] 	2057
scalar three_caches_scenario_3_links_network.node[3].content_store 	misses[3] 	18555
scalar three_caches_scenario_3_links_network.node[3].content_store 	decision_yes[3] 	16
scalar three_caches_scenario_3_links_network.node[3].content_store 	decision_no[3] 	18539
scalar three_caches_scenario_3_links_network.node[4].core_layer 	interests[4] 	96561
scalar three_caches_scenario_3_links_network.node[4].core_layer 	repo_load[4] 	96561
scalar three_caches_scenario_3_links_network.node[4].core_layer 	data[4] 	0
scalar three_caches_scenario_3_links_network.node[4].content_store 	p_hit[4] 	0
scalar three_caches_scenario_3_links_network.node[4].content_store 	hits[4] 	0
scalar three_caches_scenario_3_links_network.node[4].content_store 	misses[4] 	96561
scalar three_caches_scenario_3_links_network.node[4].content_store 	decision_yes[4] 	0
scalar three_caches_scenario_3_links_network.node[4].content_store 	decision_no[4] 	96561
scalar three_caches_scenario_3_links_network.node[5].core_layer 	interests[5] 	18094
scalar three_caches_scenario_3_links_network.node[5].core_layer 	repo_load[5] 	18094
scalar three_caches_scenario_3_links_network.node[5].core_layer 	data[5] 	0
scalar three_caches_scenario_3_links_network.node[5].content_store 	p_hit[5] 	0
scalar three_caches_scenario_3_links_network.node[5].content_store 	hits[5] 	0
scalar three_caches_scenario_3_links_network.node[5].content_store 	misses[5] 	18094
scalar three_caches_scenario_3_links_network.node[5].content_store 	decision_yes[5] 	0
scalar three_caches_scenario_3_links_network.node[5].content_store 	decision_no[5] 	18094
scalar three_caches_scenario_3_links_network.node[6].core_layer 	interests[6] 	18555
scalar three_caches_scenario_3_links_network.node[6].core_layer 	repo_load[6] 	18555
scalar three_caches_scenario_3_links_network.node[6].core_layer 	data[6] 	0
scalar three_caches_scenario_3_links_network.node[6].content_store 	p_hit[6] 	0
scalar three_caches_scenario_3_links_network.node[6].content_store 	hits[6] 	0
scalar three_caches_scenario_3_links_network.node[6].content_store 	misses[6] 	18555
scalar three_caches_scenario_3_links_network.node[6].content_store 	decision_yes[6] 	0
scalar three_caches_scenario_3_links_network.node[6].content_store 	decision_no[6] 	18555
scalar three_caches_scenario_3_links_network.client[0] 	hdistance[0] 	1.7135568107127
scalar three_caches_scenario_3_links_network.client[0] 	downloads[0] 	179526
scalar three_caches_scenario_3_links_network.client[0] 	avg_time[0] 	0
scalar three_caches_scenario_3_links_network.client[0] 	interests_sent[0] 	179526
