version 2
run General-912-20140422-19:58:04-27667
attr D lce
attr F nrr
attr R lru
attr a 0
attr configname General
attr csize 10
attr ctlg 10^3
attr datetime 20140422-19:58:04
attr experiment General
attr inifile omnetpp.ini
attr iterationvars "$net=simple_scenario, $rep=8, $priceratiovalue=7, $a=0, $ctlg=10^3, $F=nrr, $ttl=1000, $D=lce, $R=lru, $csize=10"
attr iterationvars2 "$net=simple_scenario, $rep=8, $priceratiovalue=7, $a=0, $ctlg=10^3, $F=nrr, $ttl=1000, $D=lce, $R=lru, $csize=10, $repetition=0"
attr measurement "$net=simple_scenario, $rep=8, $priceratiovalue=7, $a=0, $ctlg=10^3, $F=nrr, $ttl=1000, $D=lce, $R=lru, $csize=10"
attr net simple_scenario
attr network networks.${net=simple_scenario}_network
attr priceratiovalue 7
attr processid 27667
attr rep 8
attr repetition 0
attr replication #0
attr resultdir results
attr runnumber 912
attr seedset 8
attr ttl 1000

scalar . 	a 	0
scalar . 	csize 	10
scalar . 	priceratiovalue 	7
scalar . 	rep 	8
scalar . 	ttl 	1000
scalar simple_scenario_network.content_distribution 	repo-0 	3
scalar simple_scenario_network.content_distribution 	repo-1 	4
scalar simple_scenario_network.content_distribution 	client-0 	0
scalar simple_scenario_network.content_distribution 	repo-0_card 	485
scalar simple_scenario_network.content_distribution 	repo-1_card 	515
scalar simple_scenario_network.statistics 	p_hit 	0.006656635863117
scalar simple_scenario_network.statistics 	interests 	106870.8
scalar simple_scenario_network.statistics 	data 	70890.4
scalar simple_scenario_network.statistics 	hdistance 	2.9504785939011
scalar simple_scenario_network.statistics 	avg_time 	0.001999773973
scalar simple_scenario_network.statistics 	downloads 	179902
scalar simple_scenario_network.statistics 	total_cost 	90275
scalar simple_scenario_network.node[0].core_layer 	interests[0] 	179902
scalar simple_scenario_network.node[0].core_layer 	data[0] 	178107
scalar simple_scenario_network.node[0].core_layer 	repo_int[0] 	176345
scalar simple_scenario_network.node[0].content_store 	p_hit[0] 	0.0099776545007838
scalar simple_scenario_network.node[0].content_store 	hits[0] 	1795
scalar simple_scenario_network.node[0].content_store 	misses[0] 	178107
scalar simple_scenario_network.node[1].core_layer 	interests[1] 	86267
scalar simple_scenario_network.node[1].core_layer 	data[1] 	85369
scalar simple_scenario_network.node[1].content_store 	p_hit[1] 	0.010409542466992
scalar simple_scenario_network.node[1].content_store 	hits[1] 	898
scalar simple_scenario_network.node[1].content_store 	misses[1] 	85369
scalar simple_scenario_network.node[2].core_layer 	interests[2] 	91840
scalar simple_scenario_network.node[2].core_layer 	data[2] 	90976
scalar simple_scenario_network.node[2].content_store 	p_hit[2] 	0.0094076655052265
scalar simple_scenario_network.node[2].content_store 	hits[2] 	864
scalar simple_scenario_network.node[2].content_store 	misses[2] 	90976
scalar simple_scenario_network.node[3].core_layer 	interests[3] 	85369
scalar simple_scenario_network.node[3].core_layer 	repo_load[3] 	85369
scalar simple_scenario_network.node[3].core_layer 	data[3] 	0
scalar simple_scenario_network.node[3].content_store 	p_hit[3] 	0
scalar simple_scenario_network.node[3].content_store 	hits[3] 	0
scalar simple_scenario_network.node[3].content_store 	misses[3] 	85369
scalar simple_scenario_network.node[4].core_layer 	interests[4] 	90976
scalar simple_scenario_network.node[4].core_layer 	repo_load[4] 	90976
scalar simple_scenario_network.node[4].core_layer 	data[4] 	0
scalar simple_scenario_network.node[4].content_store 	p_hit[4] 	0
scalar simple_scenario_network.node[4].content_store 	hits[4] 	0
scalar simple_scenario_network.node[4].content_store 	misses[4] 	90976
scalar simple_scenario_network.client[0] 	hdistance[0] 	2.9504785939011
scalar simple_scenario_network.client[0] 	downloads[0] 	179902
scalar simple_scenario_network.client[0] 	avg_time[0] 	0.001999773973
