version 2
run General-1762-20140421-20:41:59-16541
attr D costprob0.1
attr F nrr
attr R lru
attr a 0.8
attr configname General
attr csize 10
attr ctlg 10^3
attr datetime 20140421-20:41:59
attr experiment General
attr inifile omnetpp.ini
attr iterationvars "$net=simple_scenario, $rep=35, $priceratiovalue=4, $a=0.8, $ctlg=10^3, $F=nrr, $ttl=1000, $D=costprob0.1, $R=lru, $csize=10"
attr iterationvars2 "$net=simple_scenario, $rep=35, $priceratiovalue=4, $a=0.8, $ctlg=10^3, $F=nrr, $ttl=1000, $D=costprob0.1, $R=lru, $csize=10, $repetition=0"
attr measurement "$net=simple_scenario, $rep=35, $priceratiovalue=4, $a=0.8, $ctlg=10^3, $F=nrr, $ttl=1000, $D=costprob0.1, $R=lru, $csize=10"
attr net simple_scenario
attr network networks.${net=simple_scenario}_network
attr priceratiovalue 4
attr processid 16541
attr rep 35
attr repetition 0
attr replication #0
attr resultdir results
attr runnumber 1762
attr seedset 35
attr ttl 1000

scalar . 	a 	0.8
scalar . 	csize 	10
scalar . 	priceratiovalue 	4
scalar . 	rep 	35
scalar . 	ttl 	1000
scalar simple_scenario_network.content_distribution 	repo-0 	3
scalar simple_scenario_network.content_distribution 	repo-1 	4
scalar simple_scenario_network.content_distribution 	client-0 	0
scalar simple_scenario_network.content_distribution 	repo-0_card 	505
scalar simple_scenario_network.content_distribution 	repo-1_card 	495
scalar simple_scenario_network.statistics 	p_hit 	0.097403831494442
scalar simple_scenario_network.statistics 	interests 	95764.2
scalar simple_scenario_network.statistics 	data 	59708.8
scalar simple_scenario_network.statistics 	hdistance 	2.3973218990775
scalar simple_scenario_network.statistics 	avg_time 	0.001998050045
scalar simple_scenario_network.statistics 	downloads 	180277
scalar simple_scenario_network.statistics 	total_cost 	66258
scalar simple_scenario_network.node[0].core_layer 	interests[0] 	180277
scalar simple_scenario_network.node[0].core_layer 	data[0] 	164906
scalar simple_scenario_network.node[0].core_layer 	repo_int[0] 	133638
scalar simple_scenario_network.node[0].content_store 	p_hit[0] 	0.085263233801317
scalar simple_scenario_network.node[0].content_store 	hits[0] 	15371
scalar simple_scenario_network.node[0].content_store 	misses[0] 	164906
scalar simple_scenario_network.node[1].core_layer 	interests[1] 	81096
scalar simple_scenario_network.node[1].core_layer 	data[1] 	67753
scalar simple_scenario_network.node[1].content_store 	p_hit[1] 	0.16453339252244
scalar simple_scenario_network.node[1].content_store 	hits[1] 	13343
scalar simple_scenario_network.node[1].content_store 	misses[1] 	67753
scalar simple_scenario_network.node[2].core_layer 	interests[2] 	83810
scalar simple_scenario_network.node[2].core_layer 	data[2] 	65885
scalar simple_scenario_network.node[2].content_store 	p_hit[2] 	0.21387662570099
scalar simple_scenario_network.node[2].content_store 	hits[2] 	17925
scalar simple_scenario_network.node[2].content_store 	misses[2] 	65885
scalar simple_scenario_network.node[3].core_layer 	interests[3] 	67753
scalar simple_scenario_network.node[3].core_layer 	repo_load[3] 	67753
scalar simple_scenario_network.node[3].core_layer 	data[3] 	0
scalar simple_scenario_network.node[3].content_store 	p_hit[3] 	0
scalar simple_scenario_network.node[3].content_store 	hits[3] 	0
scalar simple_scenario_network.node[3].content_store 	misses[3] 	67753
scalar simple_scenario_network.node[4].core_layer 	interests[4] 	65885
scalar simple_scenario_network.node[4].core_layer 	repo_load[4] 	65885
scalar simple_scenario_network.node[4].core_layer 	data[4] 	0
scalar simple_scenario_network.node[4].content_store 	p_hit[4] 	0
scalar simple_scenario_network.node[4].content_store 	hits[4] 	0
scalar simple_scenario_network.node[4].content_store 	misses[4] 	65885
scalar simple_scenario_network.client[0] 	hdistance[0] 	2.3973218990775
scalar simple_scenario_network.client[0] 	downloads[0] 	180277
scalar simple_scenario_network.client[0] 	avg_time[0] 	0.001998050045
