version 2
run General-5825-20140423-20:59:09-617
attr D prob_cache
attr F nrr
attr R lru
attr a 1.2
attr configname General
attr csize 2
attr ctlg 10^3
attr datetime 20140423-20:59:09
attr experiment General
attr inifile omnetpp.ini
attr iterationvars "$net=simple_scenario, $rep=17, $priceratiovalue=2, $a=1.2, $ctlg=10^3, $F=nrr, $ttl=1000, $D=prob_cache, $R=lru, $csize=2"
attr iterationvars2 "$net=simple_scenario, $rep=17, $priceratiovalue=2, $a=1.2, $ctlg=10^3, $F=nrr, $ttl=1000, $D=prob_cache, $R=lru, $csize=2, $repetition=0"
attr measurement "$net=simple_scenario, $rep=17, $priceratiovalue=2, $a=1.2, $ctlg=10^3, $F=nrr, $ttl=1000, $D=prob_cache, $R=lru, $csize=2"
attr net simple_scenario
attr network networks.${net=simple_scenario}_network
attr priceratiovalue 2
attr processid 617
attr rep 17
attr repetition 0
attr replication #0
attr resultdir results
attr runnumber 5825
attr seedset 17
attr ttl 1000

scalar . 	a 	1.2
scalar . 	csize 	2
scalar . 	priceratiovalue 	2
scalar . 	rep 	17
scalar . 	ttl 	1000
scalar simple_scenario_network.content_distribution 	repo-0 	3
scalar simple_scenario_network.content_distribution 	repo-1 	4
scalar simple_scenario_network.content_distribution 	client-0 	0
scalar simple_scenario_network.content_distribution 	repo-0_card 	481
scalar simple_scenario_network.content_distribution 	repo-1_card 	519
scalar simple_scenario_network.statistics 	p_hit 	0.11597378525089
scalar simple_scenario_network.statistics 	interests 	90636
scalar simple_scenario_network.statistics 	data 	54725.8
scalar simple_scenario_network.statistics 	hdistance 	2.2312490601556
scalar simple_scenario_network.statistics 	avg_time 	0.001985764619
scalar simple_scenario_network.statistics 	downloads 	179551
scalar simple_scenario_network.statistics 	total_cost 	67328
scalar simple_scenario_network.node[0].core_layer 	interests[0] 	179551
scalar simple_scenario_network.node[0].core_layer 	data[0] 	146635
scalar simple_scenario_network.node[0].core_layer 	repo_int[0] 	126994
scalar simple_scenario_network.node[0].content_store 	p_hit[0] 	0.18332395809547
scalar simple_scenario_network.node[0].content_store 	hits[0] 	32916
scalar simple_scenario_network.node[0].content_store 	misses[0] 	146635
scalar simple_scenario_network.node[1].core_layer 	interests[1] 	56923
scalar simple_scenario_network.node[1].core_layer 	data[1] 	52002
scalar simple_scenario_network.node[1].content_store 	p_hit[1] 	0.086450116824482
scalar simple_scenario_network.node[1].content_store 	hits[1] 	4921
scalar simple_scenario_network.node[1].content_store 	misses[1] 	52002
scalar simple_scenario_network.node[2].core_layer 	interests[2] 	89712
scalar simple_scenario_network.node[2].core_layer 	data[2] 	74992
scalar simple_scenario_network.node[2].content_store 	p_hit[2] 	0.16408061351882
scalar simple_scenario_network.node[2].content_store 	hits[2] 	14720
scalar simple_scenario_network.node[2].content_store 	misses[2] 	74992
scalar simple_scenario_network.node[3].core_layer 	interests[3] 	52002
scalar simple_scenario_network.node[3].core_layer 	repo_load[3] 	52002
scalar simple_scenario_network.node[3].core_layer 	data[3] 	0
scalar simple_scenario_network.node[3].content_store 	p_hit[3] 	0
scalar simple_scenario_network.node[3].content_store 	hits[3] 	0
scalar simple_scenario_network.node[3].content_store 	misses[3] 	52002
scalar simple_scenario_network.node[4].core_layer 	interests[4] 	74992
scalar simple_scenario_network.node[4].core_layer 	repo_load[4] 	74992
scalar simple_scenario_network.node[4].core_layer 	data[4] 	0
scalar simple_scenario_network.node[4].content_store 	p_hit[4] 	0
scalar simple_scenario_network.node[4].content_store 	hits[4] 	0
scalar simple_scenario_network.node[4].content_store 	misses[4] 	74992
scalar simple_scenario_network.client[0] 	hdistance[0] 	2.2312490601556
scalar simple_scenario_network.client[0] 	downloads[0] 	179551
scalar simple_scenario_network.client[0] 	avg_time[0] 	0.001985764619
