version 2
run General-223-20140502-11:18:29-14616
attr D fix0.05
attr F nrr
attr R lru
attr a 0.8
attr configname General
attr csize 1e3
attr ctlg 1e5
attr datetime 20140502-11:18:29
attr experiment General
attr inifile omnetpp.ini
attr iterationvars "$net=three_caches_scenario_3_links, $rep=2, $priceratiovalue=5, $weights=0.333_0.333_0.334, $a=0.8, $ctlg=1e5, $F=nrr, $ttl=1000, $D=fix0.05, $xi=1, $R=lru, $csize=1e3"
attr iterationvars2 "$net=three_caches_scenario_3_links, $rep=2, $priceratiovalue=5, $weights=0.333_0.333_0.334, $a=0.8, $ctlg=1e5, $F=nrr, $ttl=1000, $D=fix0.05, $xi=1, $R=lru, $csize=1e3, $repetition=0"
attr measurement "$net=three_caches_scenario_3_links, $rep=2, $priceratiovalue=5, $weights=0.333_0.333_0.334, $a=0.8, $ctlg=1e5, $F=nrr, $ttl=1000, $D=fix0.05, $xi=1, $R=lru, $csize=1e3"
attr net three_caches_scenario_3_links
attr network networks.${net=three_caches_scenario_3_links}_network
attr priceratiovalue 5
attr processid 14616
attr rep 2
attr repetition 0
attr replication #0
attr resultdir results
attr runnumber 223
attr seedset 2
attr ttl 1000
attr weights 0.333_0.333_0.334
attr xi 1

scalar . 	a 	0.8
scalar . 	csize 	1e3
scalar . 	ctlg 	1e5
scalar . 	priceratiovalue 	5
scalar . 	rep 	2
scalar . 	ttl 	1000
scalar . 	xi 	1
scalar three_caches_scenario_3_links_network.content_distribution 	repo-0 	4
scalar three_caches_scenario_3_links_network.content_distribution 	repo-1 	5
scalar three_caches_scenario_3_links_network.content_distribution 	repo-2 	6
scalar three_caches_scenario_3_links_network.content_distribution 	client-0 	0
scalar three_caches_scenario_3_links_network.content_distribution 	repo-0_card 	33264
scalar three_caches_scenario_3_links_network.content_distribution 	repo-1_card 	33272
scalar three_caches_scenario_3_links_network.content_distribution 	repo-2_card 	33464
scalar three_caches_scenario_3_links_network.statistics 	p_hit 	0.09435578416401
scalar three_caches_scenario_3_links_network.statistics 	interests 	66044.857142857
scalar three_caches_scenario_3_links_network.statistics 	data 	40343.285714286
scalar three_caches_scenario_3_links_network.statistics 	hdistance 	2.0604298792181
scalar three_caches_scenario_3_links_network.statistics 	avg_time 	0
scalar three_caches_scenario_3_links_network.statistics 	downloads 	179911
scalar three_caches_scenario_3_links_network.statistics 	total_cost 	266315
scalar three_caches_scenario_3_links_network.statistics 	total_replicas 	100000
scalar three_caches_scenario_3_links_network.statistics 	interests_sent 	179911
scalar three_caches_scenario_3_links_network.node[0].core_layer 	interests[0] 	179911
scalar three_caches_scenario_3_links_network.node[0].core_layer 	data[0] 	146114
scalar three_caches_scenario_3_links_network.node[0].core_layer 	repo_int[0] 	136289
scalar three_caches_scenario_3_links_network.node[0].content_store 	p_hit[0] 	0.18785399447505
scalar three_caches_scenario_3_links_network.node[0].content_store 	hits[0] 	33797
scalar three_caches_scenario_3_links_network.node[0].content_store 	misses[0] 	146114
scalar three_caches_scenario_3_links_network.node[0].content_store 	decision_yes[0] 	7488
scalar three_caches_scenario_3_links_network.node[0].content_store 	decision_no[0] 	138626
scalar three_caches_scenario_3_links_network.node[1].core_layer 	interests[1] 	47998
scalar three_caches_scenario_3_links_network.node[1].core_layer 	data[1] 	47998
scalar three_caches_scenario_3_links_network.node[1].content_store 	p_hit[1] 	0
scalar three_caches_scenario_3_links_network.node[1].content_store 	hits[1] 	0
scalar three_caches_scenario_3_links_network.node[1].content_store 	misses[1] 	47998
scalar three_caches_scenario_3_links_network.node[1].content_store 	decision_yes[1] 	0
scalar three_caches_scenario_3_links_network.node[1].content_store 	decision_no[1] 	47998
scalar three_caches_scenario_3_links_network.node[2].core_layer 	interests[2] 	48467
scalar three_caches_scenario_3_links_network.node[2].core_layer 	data[2] 	43785
scalar three_caches_scenario_3_links_network.node[2].content_store 	p_hit[2] 	0.096601811541874
scalar three_caches_scenario_3_links_network.node[2].content_store 	hits[2] 	4682
scalar three_caches_scenario_3_links_network.node[2].content_store 	misses[2] 	43785
scalar three_caches_scenario_3_links_network.node[2].content_store 	decision_yes[2] 	2284
scalar three_caches_scenario_3_links_network.node[2].content_store 	decision_no[2] 	41501
scalar three_caches_scenario_3_links_network.node[3].core_layer 	interests[3] 	49649
scalar three_caches_scenario_3_links_network.node[3].core_layer 	data[3] 	44506
scalar three_caches_scenario_3_links_network.node[3].content_store 	p_hit[3] 	0.10358718201776
scalar three_caches_scenario_3_links_network.node[3].content_store 	hits[3] 	5143
scalar three_caches_scenario_3_links_network.node[3].content_store 	misses[3] 	44506
scalar three_caches_scenario_3_links_network.node[3].content_store 	decision_yes[3] 	2274
scalar three_caches_scenario_3_links_network.node[3].content_store 	decision_no[3] 	42232
scalar three_caches_scenario_3_links_network.node[4].core_layer 	interests[4] 	47998
scalar three_caches_scenario_3_links_network.node[4].core_layer 	repo_load[4] 	47998
scalar three_caches_scenario_3_links_network.node[4].core_layer 	data[4] 	0
scalar three_caches_scenario_3_links_network.node[4].content_store 	p_hit[4] 	0
scalar three_caches_scenario_3_links_network.node[4].content_store 	hits[4] 	0
scalar three_caches_scenario_3_links_network.node[4].content_store 	misses[4] 	47998
scalar three_caches_scenario_3_links_network.node[4].content_store 	decision_yes[4] 	0
scalar three_caches_scenario_3_links_network.node[4].content_store 	decision_no[4] 	47998
scalar three_caches_scenario_3_links_network.node[5].core_layer 	interests[5] 	43785
scalar three_caches_scenario_3_links_network.node[5].core_layer 	repo_load[5] 	43785
scalar three_caches_scenario_3_links_network.node[5].core_layer 	data[5] 	0
scalar three_caches_scenario_3_links_network.node[5].content_store 	p_hit[5] 	0
scalar three_caches_scenario_3_links_network.node[5].content_store 	hits[5] 	0
scalar three_caches_scenario_3_links_network.node[5].content_store 	misses[5] 	43785
scalar three_caches_scenario_3_links_network.node[5].content_store 	decision_yes[5] 	0
scalar three_caches_scenario_3_links_network.node[5].content_store 	decision_no[5] 	43785
scalar three_caches_scenario_3_links_network.node[6].core_layer 	interests[6] 	44506
scalar three_caches_scenario_3_links_network.node[6].core_layer 	repo_load[6] 	44506
scalar three_caches_scenario_3_links_network.node[6].core_layer 	data[6] 	0
scalar three_caches_scenario_3_links_network.node[6].content_store 	p_hit[6] 	0
scalar three_caches_scenario_3_links_network.node[6].content_store 	hits[6] 	0
scalar three_caches_scenario_3_links_network.node[6].content_store 	misses[6] 	44506
scalar three_caches_scenario_3_links_network.node[6].content_store 	decision_yes[6] 	0
scalar three_caches_scenario_3_links_network.node[6].content_store 	decision_no[6] 	44506
scalar three_caches_scenario_3_links_network.client[0] 	hdistance[0] 	2.0604298792181
scalar three_caches_scenario_3_links_network.client[0] 	downloads[0] 	179911
scalar three_caches_scenario_3_links_network.client[0] 	avg_time[0] 	0
scalar three_caches_scenario_3_links_network.client[0] 	interests_sent[0] 	179911
