version 2
run General-15-20140423-04:40:25-8256
attr D fix0.01
attr F nrr
attr R lru
attr a 1.2
attr configname General
attr csize 10^3
attr ctlg 10^8
attr datetime 20140423-04:40:25
attr experiment General
attr inifile omnetpp.ini
attr iterationvars "$net=simple_scenario, $rep=1, $priceratiovalue=1, $a=1.2, $ctlg=10^8, $F=nrr, $ttl=1000, $D=fix0.01, $R=lru, $csize=10^3"
attr iterationvars2 "$net=simple_scenario, $rep=1, $priceratiovalue=1, $a=1.2, $ctlg=10^8, $F=nrr, $ttl=1000, $D=fix0.01, $R=lru, $csize=10^3, $repetition=0"
attr measurement "$net=simple_scenario, $rep=1, $priceratiovalue=1, $a=1.2, $ctlg=10^8, $F=nrr, $ttl=1000, $D=fix0.01, $R=lru, $csize=10^3"
attr net simple_scenario
attr network networks.${net=simple_scenario}_network
attr priceratiovalue 1
attr processid 8256
attr rep 1
attr repetition 0
attr replication #0
attr resultdir results
attr runnumber 15
attr seedset 1
attr ttl 1000

scalar . 	a 	1.2
scalar . 	priceratiovalue 	1
scalar . 	rep 	1
scalar . 	ttl 	1000
scalar simple_scenario_network.content_distribution 	repo-0 	3
scalar simple_scenario_network.content_distribution 	repo-1 	4
scalar simple_scenario_network.content_distribution 	client-0 	0
scalar simple_scenario_network.content_distribution 	repo-0_card 	50003719
scalar simple_scenario_network.content_distribution 	repo-1_card 	49996281
scalar simple_scenario_network.statistics 	p_hit 	0.55724774475065
scalar simple_scenario_network.statistics 	interests 	51701.6
scalar simple_scenario_network.statistics 	data 	15586.4
scalar simple_scenario_network.statistics 	hdistance 	0.63383635608472
scalar simple_scenario_network.statistics 	avg_time 	0.001990812277
scalar simple_scenario_network.statistics 	downloads 	180575
scalar simple_scenario_network.statistics 	total_cost 	18261
scalar simple_scenario_network.node[0].core_layer 	interests[0] 	180576
scalar simple_scenario_network.node[0].core_layer 	data[0] 	41409
scalar simple_scenario_network.node[0].core_layer 	repo_int[0] 	36523
scalar simple_scenario_network.node[0].content_store 	p_hit[0] 	0.77068381180223
scalar simple_scenario_network.node[0].content_store 	hits[0] 	139167
scalar simple_scenario_network.node[0].content_store 	misses[0] 	41409
scalar simple_scenario_network.node[1].core_layer 	interests[1] 	20710
scalar simple_scenario_network.node[1].core_layer 	data[1] 	18299
scalar simple_scenario_network.node[1].content_store 	p_hit[1] 	0.1164171897634
scalar simple_scenario_network.node[1].content_store 	hits[1] 	2411
scalar simple_scenario_network.node[1].content_store 	misses[1] 	18299
scalar simple_scenario_network.node[2].core_layer 	interests[2] 	20699
scalar simple_scenario_network.node[2].core_layer 	data[2] 	18224
scalar simple_scenario_network.node[2].content_store 	p_hit[2] 	0.11957099376781
scalar simple_scenario_network.node[2].content_store 	hits[2] 	2475
scalar simple_scenario_network.node[2].content_store 	misses[2] 	18224
scalar simple_scenario_network.node[3].core_layer 	interests[3] 	18299
scalar simple_scenario_network.node[3].core_layer 	repo_load[3] 	18299
scalar simple_scenario_network.node[3].core_layer 	data[3] 	0
scalar simple_scenario_network.node[3].content_store 	p_hit[3] 	0
scalar simple_scenario_network.node[3].content_store 	hits[3] 	0
scalar simple_scenario_network.node[3].content_store 	misses[3] 	18299
scalar simple_scenario_network.node[4].core_layer 	interests[4] 	18224
scalar simple_scenario_network.node[4].core_layer 	repo_load[4] 	18224
scalar simple_scenario_network.node[4].core_layer 	data[4] 	0
scalar simple_scenario_network.node[4].content_store 	p_hit[4] 	0
scalar simple_scenario_network.node[4].content_store 	hits[4] 	0
scalar simple_scenario_network.node[4].content_store 	misses[4] 	18224
scalar simple_scenario_network.client[0] 	hdistance[0] 	0.63383635608472
scalar simple_scenario_network.client[0] 	downloads[0] 	180575
scalar simple_scenario_network.client[0] 	avg_time[0] 	0.001990812277
