version 2
run General-14-20140502-09:43:58-12874
attr D costprob0.5
attr F nrr
attr R lru
attr a 1
attr configname General
attr csize 1e3
attr ctlg 1e5
attr datetime 20140502-09:43:58
attr experiment General
attr inifile omnetpp.ini
attr iterationvars "$net=three_caches_scenario_3_links, $rep=1, $priceratiovalue=1, $weights=0.333_0.333_0.334, $a=1, $ctlg=1e5, $F=nrr, $ttl=1000, $D=costprob0.5, $xi=1, $R=lru, $csize=1e3"
attr iterationvars2 "$net=three_caches_scenario_3_links, $rep=1, $priceratiovalue=1, $weights=0.333_0.333_0.334, $a=1, $ctlg=1e5, $F=nrr, $ttl=1000, $D=costprob0.5, $xi=1, $R=lru, $csize=1e3, $repetition=0"
attr measurement "$net=three_caches_scenario_3_links, $rep=1, $priceratiovalue=1, $weights=0.333_0.333_0.334, $a=1, $ctlg=1e5, $F=nrr, $ttl=1000, $D=costprob0.5, $xi=1, $R=lru, $csize=1e3"
attr net three_caches_scenario_3_links
attr network networks.${net=three_caches_scenario_3_links}_network
attr priceratiovalue 1
attr processid 12874
attr rep 1
attr repetition 0
attr replication #0
attr resultdir results
attr runnumber 14
attr seedset 1
attr ttl 1000
attr weights 0.333_0.333_0.334
attr xi 1

scalar . 	a 	1
scalar . 	csize 	1e3
scalar . 	ctlg 	1e5
scalar . 	priceratiovalue 	1
scalar . 	rep 	1
scalar . 	ttl 	1000
scalar . 	xi 	1
scalar three_caches_scenario_3_links_network.content_distribution 	repo-0 	4
scalar three_caches_scenario_3_links_network.content_distribution 	repo-1 	5
scalar three_caches_scenario_3_links_network.content_distribution 	repo-2 	6
scalar three_caches_scenario_3_links_network.content_distribution 	client-0 	0
scalar three_caches_scenario_3_links_network.content_distribution 	repo-0_card 	33352
scalar three_caches_scenario_3_links_network.content_distribution 	repo-1_card 	33263
scalar three_caches_scenario_3_links_network.content_distribution 	repo-2_card 	33385
scalar three_caches_scenario_3_links_network.statistics 	p_hit 	0.13719425329537
scalar three_caches_scenario_3_links_network.statistics 	interests 	62674.428571429
scalar three_caches_scenario_3_links_network.statistics 	data 	37014.142857143
scalar three_caches_scenario_3_links_network.statistics 	hdistance 	1.7632750999321
scalar three_caches_scenario_3_links_network.statistics 	avg_time 	0
scalar three_caches_scenario_3_links_network.statistics 	downloads 	179622
scalar three_caches_scenario_3_links_network.statistics 	total_cost 	57624
scalar three_caches_scenario_3_links_network.statistics 	total_replicas 	100000
scalar three_caches_scenario_3_links_network.statistics 	interests_sent 	179622
scalar three_caches_scenario_3_links_network.node[0].core_layer 	interests[0] 	179622
scalar three_caches_scenario_3_links_network.node[0].core_layer 	data[0] 	139667
scalar three_caches_scenario_3_links_network.node[0].core_layer 	repo_int[0] 	119432
scalar three_caches_scenario_3_links_network.node[0].content_store 	p_hit[0] 	0.2224393448464
scalar three_caches_scenario_3_links_network.node[0].content_store 	hits[0] 	39955
scalar three_caches_scenario_3_links_network.node[0].content_store 	misses[0] 	139667
scalar three_caches_scenario_3_links_network.node[0].content_store 	decision_yes[0] 	43217
scalar three_caches_scenario_3_links_network.node[0].content_store 	decision_no[0] 	96450
scalar three_caches_scenario_3_links_network.node[1].core_layer 	interests[1] 	61808
scalar three_caches_scenario_3_links_network.node[1].core_layer 	data[1] 	61808
scalar three_caches_scenario_3_links_network.node[1].content_store 	p_hit[1] 	0
scalar three_caches_scenario_3_links_network.node[1].content_store 	hits[1] 	0
scalar three_caches_scenario_3_links_network.node[1].content_store 	misses[1] 	61808
scalar three_caches_scenario_3_links_network.node[1].content_store 	decision_yes[1] 	0
scalar three_caches_scenario_3_links_network.node[1].content_store 	decision_no[1] 	61808
scalar three_caches_scenario_3_links_network.node[2].core_layer 	interests[2] 	40694
scalar three_caches_scenario_3_links_network.node[2].core_layer 	data[2] 	28637
scalar three_caches_scenario_3_links_network.node[2].content_store 	p_hit[2] 	0.29628446454023
scalar three_caches_scenario_3_links_network.node[2].content_store 	hits[2] 	12057
scalar three_caches_scenario_3_links_network.node[2].content_store 	misses[2] 	28637
scalar three_caches_scenario_3_links_network.node[2].content_store 	decision_yes[2] 	21435
scalar three_caches_scenario_3_links_network.node[2].content_store 	decision_no[2] 	7202
scalar three_caches_scenario_3_links_network.node[3].core_layer 	interests[3] 	37165
scalar three_caches_scenario_3_links_network.node[3].core_layer 	data[3] 	28987
scalar three_caches_scenario_3_links_network.node[3].content_store 	p_hit[3] 	0.22004574196152
scalar three_caches_scenario_3_links_network.node[3].content_store 	hits[3] 	8178
scalar three_caches_scenario_3_links_network.node[3].content_store 	misses[3] 	28987
scalar three_caches_scenario_3_links_network.node[3].content_store 	decision_yes[3] 	21750
scalar three_caches_scenario_3_links_network.node[3].content_store 	decision_no[3] 	7237
scalar three_caches_scenario_3_links_network.node[4].core_layer 	interests[4] 	61808
scalar three_caches_scenario_3_links_network.node[4].core_layer 	repo_load[4] 	61808
scalar three_caches_scenario_3_links_network.node[4].core_layer 	data[4] 	0
scalar three_caches_scenario_3_links_network.node[4].content_store 	p_hit[4] 	0
scalar three_caches_scenario_3_links_network.node[4].content_store 	hits[4] 	0
scalar three_caches_scenario_3_links_network.node[4].content_store 	misses[4] 	61808
scalar three_caches_scenario_3_links_network.node[4].content_store 	decision_yes[4] 	0
scalar three_caches_scenario_3_links_network.node[4].content_store 	decision_no[4] 	61808
scalar three_caches_scenario_3_links_network.node[5].core_layer 	interests[5] 	28637
scalar three_caches_scenario_3_links_network.node[5].core_layer 	repo_load[5] 	28637
scalar three_caches_scenario_3_links_network.node[5].core_layer 	data[5] 	0
scalar three_caches_scenario_3_links_network.node[5].content_store 	p_hit[5] 	0
scalar three_caches_scenario_3_links_network.node[5].content_store 	hits[5] 	0
scalar three_caches_scenario_3_links_network.node[5].content_store 	misses[5] 	28637
scalar three_caches_scenario_3_links_network.node[5].content_store 	decision_yes[5] 	0
scalar three_caches_scenario_3_links_network.node[5].content_store 	decision_no[5] 	28637
scalar three_caches_scenario_3_links_network.node[6].core_layer 	interests[6] 	28987
scalar three_caches_scenario_3_links_network.node[6].core_layer 	repo_load[6] 	28987
scalar three_caches_scenario_3_links_network.node[6].core_layer 	data[6] 	0
scalar three_caches_scenario_3_links_network.node[6].content_store 	p_hit[6] 	0
scalar three_caches_scenario_3_links_network.node[6].content_store 	hits[6] 	0
scalar three_caches_scenario_3_links_network.node[6].content_store 	misses[6] 	28987
scalar three_caches_scenario_3_links_network.node[6].content_store 	decision_yes[6] 	0
scalar three_caches_scenario_3_links_network.node[6].content_store 	decision_no[6] 	28987
scalar three_caches_scenario_3_links_network.client[0] 	hdistance[0] 	1.7632750999321
scalar three_caches_scenario_3_links_network.client[0] 	downloads[0] 	179622
scalar three_caches_scenario_3_links_network.client[0] 	avg_time[0] 	0
scalar three_caches_scenario_3_links_network.client[0] 	interests_sent[0] 	179622
