version 2
run General-2702-20140502-06:17:46-11663
attr D costprob0.5
attr F nrr
attr R lru
attr a 0.8
attr configname General
attr csize 1e3
attr ctlg 1e5
attr datetime 20140502-06:17:46
attr experiment General
attr inifile omnetpp.ini
attr iterationvars "$net=three_caches_scenario_3_links, $rep=5, $priceratiovalue=5, $weights=0_0.5_0.5, $a=0.8, $ctlg=1e5, $F=nrr, $ttl=1000, $D=costprob0.5, $xi=1, $R=lru, $csize=1e3"
attr iterationvars2 "$net=three_caches_scenario_3_links, $rep=5, $priceratiovalue=5, $weights=0_0.5_0.5, $a=0.8, $ctlg=1e5, $F=nrr, $ttl=1000, $D=costprob0.5, $xi=1, $R=lru, $csize=1e3, $repetition=0"
attr measurement "$net=three_caches_scenario_3_links, $rep=5, $priceratiovalue=5, $weights=0_0.5_0.5, $a=0.8, $ctlg=1e5, $F=nrr, $ttl=1000, $D=costprob0.5, $xi=1, $R=lru, $csize=1e3"
attr net three_caches_scenario_3_links
attr network networks.${net=three_caches_scenario_3_links}_network
attr priceratiovalue 5
attr processid 11663
attr rep 5
attr repetition 0
attr replication #0
attr resultdir results
attr runnumber 2702
attr seedset 5
attr ttl 1000
attr weights 0_0.5_0.5
attr xi 1

scalar . 	a 	0.8
scalar . 	csize 	1e3
scalar . 	ctlg 	1e5
scalar . 	priceratiovalue 	5
scalar . 	rep 	5
scalar . 	ttl 	1000
scalar . 	xi 	1
scalar three_caches_scenario_3_links_network.content_distribution 	repo-0 	4
scalar three_caches_scenario_3_links_network.content_distribution 	repo-1 	5
scalar three_caches_scenario_3_links_network.content_distribution 	repo-2 	6
scalar three_caches_scenario_3_links_network.content_distribution 	client-0 	0
scalar three_caches_scenario_3_links_network.content_distribution 	repo-0_card 	0
scalar three_caches_scenario_3_links_network.content_distribution 	repo-1_card 	49909
scalar three_caches_scenario_3_links_network.content_distribution 	repo-2_card 	50091
scalar three_caches_scenario_3_links_network.statistics 	p_hit 	0.072359993097358
scalar three_caches_scenario_3_links_network.statistics 	interests 	70366.428571429
scalar three_caches_scenario_3_links_network.statistics 	data 	44541.142857143
scalar three_caches_scenario_3_links_network.statistics 	hdistance 	2.5275505180416
scalar three_caches_scenario_3_links_network.statistics 	avg_time 	0
scalar three_caches_scenario_3_links_network.statistics 	downloads 	180777
scalar three_caches_scenario_3_links_network.statistics 	total_cost 	441155
scalar three_caches_scenario_3_links_network.statistics 	total_replicas 	100000
scalar three_caches_scenario_3_links_network.statistics 	interests_sent 	180777
scalar three_caches_scenario_3_links_network.node[0].core_layer 	interests[0] 	180777
scalar three_caches_scenario_3_links_network.node[0].core_layer 	data[0] 	166653
scalar three_caches_scenario_3_links_network.node[0].core_layer 	repo_int[0] 	145135
scalar three_caches_scenario_3_links_network.node[0].content_store 	p_hit[0] 	0.078129408055228
scalar three_caches_scenario_3_links_network.node[0].content_store 	hits[0] 	14124
scalar three_caches_scenario_3_links_network.node[0].content_store 	misses[0] 	166653
scalar three_caches_scenario_3_links_network.node[0].content_store 	decision_yes[0] 	73609
scalar three_caches_scenario_3_links_network.node[0].content_store 	decision_no[0] 	93044
scalar three_caches_scenario_3_links_network.node[1].core_layer 	interests[1] 	0
scalar three_caches_scenario_3_links_network.node[1].core_layer 	data[1] 	0
scalar three_caches_scenario_3_links_network.node[1].content_store 	p_hit[1] 	-nan
scalar three_caches_scenario_3_links_network.node[1].content_store 	hits[1] 	0
scalar three_caches_scenario_3_links_network.node[1].content_store 	misses[1] 	0
scalar three_caches_scenario_3_links_network.node[1].content_store 	decision_yes[1] 	0
scalar three_caches_scenario_3_links_network.node[1].content_store 	decision_no[1] 	0
scalar three_caches_scenario_3_links_network.node[2].core_layer 	interests[2] 	89532
scalar three_caches_scenario_3_links_network.node[2].core_layer 	data[2] 	71130
scalar three_caches_scenario_3_links_network.node[2].content_store 	p_hit[2] 	0.20553545101193
scalar three_caches_scenario_3_links_network.node[2].content_store 	hits[2] 	18402
scalar three_caches_scenario_3_links_network.node[2].content_store 	misses[2] 	71130
scalar three_caches_scenario_3_links_network.node[2].content_store 	decision_yes[2] 	11888
scalar three_caches_scenario_3_links_network.node[2].content_store 	decision_no[2] 	59242
scalar three_caches_scenario_3_links_network.node[3].core_layer 	interests[3] 	77121
scalar three_caches_scenario_3_links_network.node[3].core_layer 	data[3] 	74005
scalar three_caches_scenario_3_links_network.node[3].content_store 	p_hit[3] 	0.04040404040404
scalar three_caches_scenario_3_links_network.node[3].content_store 	hits[3] 	3116
scalar three_caches_scenario_3_links_network.node[3].content_store 	misses[3] 	74005
scalar three_caches_scenario_3_links_network.node[3].content_store 	decision_yes[3] 	61590
scalar three_caches_scenario_3_links_network.node[3].content_store 	decision_no[3] 	12415
scalar three_caches_scenario_3_links_network.node[4].core_layer 	interests[4] 	0
scalar three_caches_scenario_3_links_network.node[4].core_layer 	data[4] 	0
scalar three_caches_scenario_3_links_network.node[4].content_store 	p_hit[4] 	-nan
scalar three_caches_scenario_3_links_network.node[4].content_store 	hits[4] 	0
scalar three_caches_scenario_3_links_network.node[4].content_store 	misses[4] 	0
scalar three_caches_scenario_3_links_network.node[4].content_store 	decision_yes[4] 	0
scalar three_caches_scenario_3_links_network.node[4].content_store 	decision_no[4] 	0
scalar three_caches_scenario_3_links_network.node[5].core_layer 	interests[5] 	71130
scalar three_caches_scenario_3_links_network.node[5].core_layer 	repo_load[5] 	71130
scalar three_caches_scenario_3_links_network.node[5].core_layer 	data[5] 	0
scalar three_caches_scenario_3_links_network.node[5].content_store 	p_hit[5] 	0
scalar three_caches_scenario_3_links_network.node[5].content_store 	hits[5] 	0
scalar three_caches_scenario_3_links_network.node[5].content_store 	misses[5] 	71130
scalar three_caches_scenario_3_links_network.node[5].content_store 	decision_yes[5] 	0
scalar three_caches_scenario_3_links_network.node[5].content_store 	decision_no[5] 	71130
scalar three_caches_scenario_3_links_network.node[6].core_layer 	interests[6] 	74005
scalar three_caches_scenario_3_links_network.node[6].core_layer 	repo_load[6] 	74005
scalar three_caches_scenario_3_links_network.node[6].core_layer 	data[6] 	0
scalar three_caches_scenario_3_links_network.node[6].content_store 	p_hit[6] 	0
scalar three_caches_scenario_3_links_network.node[6].content_store 	hits[6] 	0
scalar three_caches_scenario_3_links_network.node[6].content_store 	misses[6] 	74005
scalar three_caches_scenario_3_links_network.node[6].content_store 	decision_yes[6] 	0
scalar three_caches_scenario_3_links_network.node[6].content_store 	decision_no[6] 	74005
scalar three_caches_scenario_3_links_network.client[0] 	hdistance[0] 	2.5275505180416
scalar three_caches_scenario_3_links_network.client[0] 	downloads[0] 	180777
scalar three_caches_scenario_3_links_network.client[0] 	avg_time[0] 	0
scalar three_caches_scenario_3_links_network.client[0] 	interests_sent[0] 	180777
