version 2
run General-2-20150806-15:05:18-23753
attr C 1e3
attr D fix0.1
attr F spr
attr R lru_repr
attr a 1
attr brates 0.3_0.7_1.5_2.5_3.5
attr configname General
attr ctlg 1e5
attr datetime 20150806-15:05:18
attr experiment General
attr inifile omnetpp.ini
attr iterationvars "$net=abilene_nodelay, $rep=0, $lambda=100, $a=1, $ctlg=1e5, $brates=0.3_0.7_1.5_2.5_3.5, $F=spr, $ttl=1000, $D=fix0.1, $R=lru_repr, $proactiveprob=0.001, $C=1e3, $window=60, $variance=0.05, $mytime=180000"
attr iterationvars2 "$net=abilene_nodelay, $rep=0, $lambda=100, $a=1, $ctlg=1e5, $brates=0.3_0.7_1.5_2.5_3.5, $F=spr, $ttl=1000, $D=fix0.1, $R=lru_repr, $proactiveprob=0.001, $C=1e3, $window=60, $variance=0.05, $mytime=180000, $repetition=0"
attr lambda 100
attr measurement "$net=abilene_nodelay, $rep=0, $lambda=100, $a=1, $ctlg=1e5, $brates=0.3_0.7_1.5_2.5_3.5, $F=spr, $ttl=1000, $D=fix0.1, $R=lru_repr, $proactiveprob=0.001, $C=1e3, $window=60, $variance=0.05, $mytime=180000"
attr mytime 180000
attr net abilene_nodelay
attr network networks.${net=abilene_nodelay}_network
attr proactiveprob 0.001
attr processid 23753
attr rep 0
attr repetition 0
attr replication #0
attr resultdir results
attr runnumber 2
attr seedset 0
attr ttl 1000
attr variance 0.05
attr window 60

scalar . 	C 	1e3
scalar . 	a 	1
scalar . 	ctlg 	1e5
scalar . 	lambda 	100
scalar . 	mytime 	180000
scalar . 	proactiveprob 	0.001
scalar . 	rep 	0
scalar . 	ttl 	1000
scalar . 	variance 	0.05
scalar . 	window 	60
scalar abilene_nodelay_network.content_distribution 	repo-0 	5
scalar abilene_nodelay_network.content_distribution 	repo-1 	8
scalar abilene_nodelay_network.content_distribution 	repo-2 	9
scalar abilene_nodelay_network.content_distribution 	repo-3 	0
scalar abilene_nodelay_network.content_distribution 	repo-4 	1
scalar abilene_nodelay_network.content_distribution 	repo-5 	7
scalar abilene_nodelay_network.content_distribution 	repo-6 	6
scalar abilene_nodelay_network.content_distribution 	repo-7 	2
scalar abilene_nodelay_network.content_distribution 	repo-8 	4
scalar abilene_nodelay_network.content_distribution 	repo-9 	10
scalar abilene_nodelay_network.content_distribution 	repo-10 	3
scalar abilene_nodelay_network.content_distribution 	client-0 	10
scalar abilene_nodelay_network.content_distribution 	client-1 	9
scalar abilene_nodelay_network.content_distribution 	client-2 	8
scalar abilene_nodelay_network.content_distribution 	client-3 	7
scalar abilene_nodelay_network.content_distribution 	client-4 	3
scalar abilene_nodelay_network.content_distribution 	client-5 	6
scalar abilene_nodelay_network.content_distribution 	client-6 	5
scalar abilene_nodelay_network.content_distribution 	client-7 	1
scalar abilene_nodelay_network.content_distribution 	client-8 	4
scalar abilene_nodelay_network.content_distribution 	client-9 	0
scalar abilene_nodelay_network.content_distribution 	client-10 	2
scalar abilene_nodelay_network.content_distribution 	repo-0_card 	9071
scalar abilene_nodelay_network.content_distribution 	repo-0_price 	0
scalar abilene_nodelay_network.content_distribution 	repo-1_card 	8986
scalar abilene_nodelay_network.content_distribution 	repo-1_price 	0
scalar abilene_nodelay_network.content_distribution 	repo-2_card 	9050
scalar abilene_nodelay_network.content_distribution 	repo-2_price 	0
scalar abilene_nodelay_network.content_distribution 	repo-3_card 	8986
scalar abilene_nodelay_network.content_distribution 	repo-3_price 	0
scalar abilene_nodelay_network.content_distribution 	repo-4_card 	9064
scalar abilene_nodelay_network.content_distribution 	repo-4_price 	0
scalar abilene_nodelay_network.content_distribution 	repo-5_card 	9170
scalar abilene_nodelay_network.content_distribution 	repo-5_price 	0
scalar abilene_nodelay_network.content_distribution 	repo-6_card 	9151
scalar abilene_nodelay_network.content_distribution 	repo-6_price 	0
scalar abilene_nodelay_network.content_distribution 	repo-7_card 	9112
scalar abilene_nodelay_network.content_distribution 	repo-7_price 	0
scalar abilene_nodelay_network.content_distribution 	repo-8_card 	9132
scalar abilene_nodelay_network.content_distribution 	repo-8_price 	0
scalar abilene_nodelay_network.content_distribution 	repo-9_card 	9101
scalar abilene_nodelay_network.content_distribution 	repo-9_price 	0
scalar abilene_nodelay_network.content_distribution 	repo-10_card 	9177
scalar abilene_nodelay_network.content_distribution 	repo-10_price 	0
scalar abilene_nodelay_network.statistics 	stabilization_time 	36060
scalar abilene_nodelay_network.statistics 	p_hit 	0.49500341093864
scalar abilene_nodelay_network.statistics 	interests 	26842784.545455
scalar abilene_nodelay_network.statistics 	data 	8833169.7272727
scalar abilene_nodelay_network.statistics 	hdistance 	0.75131530852423
scalar abilene_nodelay_network.statistics 	avg_time 	0
scalar abilene_nodelay_network.statistics 	downloads 	197980075
scalar abilene_nodelay_network.statistics 	total_cost 	0
scalar abilene_nodelay_network.statistics 	total_replicas 	100000
scalar abilene_nodelay_network.statistics 	"representations_downloaded 0.759135:0.0669856:0.0390141:0.0323198:0.102545:" 	0
scalar abilene_nodelay_network.statistics 	"slots_per_representation 100:233:500:833:1167:" 	0
scalar abilene_nodelay_network.statistics 	inner_hit 	0.73762110151741
scalar abilene_nodelay_network.statistics 	execution_time 	18672
scalar abilene_nodelay_network.node[0].core_layer 	interests[0] 	20590417
scalar abilene_nodelay_network.node[0].core_layer 	repo_load[0] 	3869889
scalar abilene_nodelay_network.node[0].core_layer 	data[0] 	4469015
scalar abilene_nodelay_network.node[0].core_layer 	slots_sent[face$o[1]->client[0]] 	4914764423
scalar abilene_nodelay_network.node[0].core_layer 	slots_sent[face$o[2]->node[1]] 	185749977
scalar abilene_nodelay_network.node[0].core_layer 	slots_sent[face$o[3]->node[10]] 	74223490
scalar abilene_nodelay_network.node[0].content_store 	p_hit[0] 	0.59501043616552
scalar abilene_nodelay_network.node[0].content_store 	hits[0] 	12251513
scalar abilene_nodelay_network.node[0].content_store 	misses[0] 	8338904
scalar abilene_nodelay_network.node[0].content_store 	decision_yes[0] 	446272
scalar abilene_nodelay_network.node[0].content_store 	decision_no[0] 	7892632
scalar abilene_nodelay_network.node[0].content_store 	decision_ratio[0] 	0.053516865046054
scalar abilene_nodelay_network.node[0].content_store 	"representation_breakdown[0] 11433:60:4:5:3:" 	0
scalar abilene_nodelay_network.node[0].proactive_component 	hdistance[0].proactive_component 	3.2693954867402
scalar abilene_nodelay_network.node[0].proactive_component 	downloads[0].proactive_component 	12142
scalar abilene_nodelay_network.node[0].proactive_component 	avg_time[0].proactive_component 	0
scalar abilene_nodelay_network.node[1].core_layer 	interests[1] 	29764587
scalar abilene_nodelay_network.node[1].core_layer 	repo_load[1] 	5162523
scalar abilene_nodelay_network.node[1].core_layer 	data[1] 	11067932
scalar abilene_nodelay_network.node[1].core_layer 	slots_sent[face$o[1]->client[1]] 	4290272279
scalar abilene_nodelay_network.node[1].core_layer 	slots_sent[face$o[2]->node[0]] 	363109859
scalar abilene_nodelay_network.node[1].core_layer 	slots_sent[face$o[3]->node[10]] 	271330273
scalar abilene_nodelay_network.node[1].core_layer 	slots_sent[face$o[4]->node[2]] 	558978095
scalar abilene_nodelay_network.node[1].content_store 	p_hit[1] 	0.45470585565323
scalar abilene_nodelay_network.node[1].content_store 	hits[1] 	13534132
scalar abilene_nodelay_network.node[1].content_store 	misses[1] 	16230455
scalar abilene_nodelay_network.node[1].content_store 	decision_yes[1] 	1104887
scalar abilene_nodelay_network.node[1].content_store 	decision_no[1] 	15125568
scalar abilene_nodelay_network.node[1].content_store 	decision_ratio[1] 	0.068074924578516
scalar abilene_nodelay_network.node[1].content_store 	"representation_breakdown[1] 11463:43:11:2:3:" 	0
scalar abilene_nodelay_network.node[1].proactive_component 	hdistance[1].proactive_component 	2.8823281019073
scalar abilene_nodelay_network.node[1].proactive_component 	downloads[1].proactive_component 	14209
scalar abilene_nodelay_network.node[1].proactive_component 	avg_time[1].proactive_component 	0
scalar abilene_nodelay_network.node[2].core_layer 	interests[2] 	36870985
scalar abilene_nodelay_network.node[2].core_layer 	repo_load[2] 	5860703
scalar abilene_nodelay_network.node[2].core_layer 	data[2] 	16273910
scalar abilene_nodelay_network.node[2].core_layer 	slots_sent[face$o[1]->client[2]] 	4388982889
scalar abilene_nodelay_network.node[2].core_layer 	slots_sent[face$o[2]->node[1]] 	728622552
scalar abilene_nodelay_network.node[2].core_layer 	slots_sent[face$o[3]->node[3]] 	817254508
scalar abilene_nodelay_network.node[2].core_layer 	slots_sent[face$o[4]->node[8]] 	368383699
scalar abilene_nodelay_network.node[2].content_store 	p_hit[2] 	0.39967394415961
scalar abilene_nodelay_network.node[2].content_store 	hits[2] 	14736372
scalar abilene_nodelay_network.node[2].content_store 	misses[2] 	22134613
scalar abilene_nodelay_network.node[2].content_store 	decision_yes[2] 	1625156
scalar abilene_nodelay_network.node[2].content_store 	decision_no[2] 	20509457
scalar abilene_nodelay_network.node[2].content_store 	decision_ratio[2] 	0.073421477935937
scalar abilene_nodelay_network.node[2].content_store 	"representation_breakdown[2] 11471:41:11:3:2:" 	0
scalar abilene_nodelay_network.node[2].proactive_component 	hdistance[2].proactive_component 	2.6884197056942
scalar abilene_nodelay_network.node[2].proactive_component 	downloads[2].proactive_component 	15630
scalar abilene_nodelay_network.node[2].proactive_component 	avg_time[2].proactive_component 	0
scalar abilene_nodelay_network.node[3].core_layer 	interests[3] 	35233760
scalar abilene_nodelay_network.node[3].core_layer 	repo_load[3] 	4969962
scalar abilene_nodelay_network.node[3].core_layer 	data[3] 	15009314
scalar abilene_nodelay_network.node[3].core_layer 	slots_sent[face$o[1]->client[3]] 	4649136729
scalar abilene_nodelay_network.node[3].core_layer 	slots_sent[face$o[2]->node[2]] 	788696454
scalar abilene_nodelay_network.node[3].core_layer 	slots_sent[face$o[3]->node[4]] 	555351732
scalar abilene_nodelay_network.node[3].core_layer 	slots_sent[face$o[4]->node[7]] 	404259792
scalar abilene_nodelay_network.node[3].content_store 	p_hit[3] 	0.43295078356667
scalar abilene_nodelay_network.node[3].content_store 	hits[3] 	15254484
scalar abilene_nodelay_network.node[3].content_store 	misses[3] 	19979276
scalar abilene_nodelay_network.node[3].content_store 	decision_yes[3] 	1501784
scalar abilene_nodelay_network.node[3].content_store 	decision_no[3] 	18477492
scalar abilene_nodelay_network.node[3].content_store 	decision_ratio[3] 	0.075167088136727
scalar abilene_nodelay_network.node[3].content_store 	"representation_breakdown[3] 11440:60:6:3:3:" 	0
scalar abilene_nodelay_network.node[3].proactive_component 	hdistance[3].proactive_component 	2.7076723659033
scalar abilene_nodelay_network.node[3].proactive_component 	downloads[3].proactive_component 	16201
scalar abilene_nodelay_network.node[3].proactive_component 	avg_time[3].proactive_component 	0
scalar abilene_nodelay_network.node[4].core_layer 	interests[4] 	24818203
scalar abilene_nodelay_network.node[4].core_layer 	repo_load[4] 	4214116
scalar abilene_nodelay_network.node[4].core_layer 	data[4] 	7393320
scalar abilene_nodelay_network.node[4].core_layer 	slots_sent[face$o[1]->client[4]] 	4756418436
scalar abilene_nodelay_network.node[4].core_layer 	slots_sent[face$o[2]->node[3]] 	381144275
scalar abilene_nodelay_network.node[4].core_layer 	slots_sent[face$o[3]->node[5]] 	309912732
scalar abilene_nodelay_network.node[4].content_store 	p_hit[4] 	0.53230151272435
scalar abilene_nodelay_network.node[4].content_store 	hits[4] 	13210767
scalar abilene_nodelay_network.node[4].content_store 	misses[4] 	11607436
scalar abilene_nodelay_network.node[4].content_store 	decision_yes[4] 	738653
scalar abilene_nodelay_network.node[4].content_store 	decision_no[4] 	10868783
scalar abilene_nodelay_network.node[4].content_store 	decision_ratio[4] 	0.063636189766629
scalar abilene_nodelay_network.node[4].content_store 	"representation_breakdown[4] 11448:55:9:3:2:" 	0
scalar abilene_nodelay_network.node[4].proactive_component 	hdistance[4].proactive_component 	3.0011714745936
scalar abilene_nodelay_network.node[4].proactive_component 	downloads[4].proactive_component 	13658
scalar abilene_nodelay_network.node[4].proactive_component 	avg_time[4].proactive_component 	0
scalar abilene_nodelay_network.node[5].core_layer 	interests[5] 	21520350
scalar abilene_nodelay_network.node[5].core_layer 	repo_load[5] 	5287176
scalar abilene_nodelay_network.node[5].core_layer 	data[5] 	5162701
scalar abilene_nodelay_network.node[5].core_layer 	slots_sent[face$o[1]->client[5]] 	4034618821
scalar abilene_nodelay_network.node[5].core_layer 	slots_sent[face$o[2]->node[4]] 	195285506
scalar abilene_nodelay_network.node[5].core_layer 	slots_sent[face$o[3]->node[6]] 	160021171
scalar abilene_nodelay_network.node[5].content_store 	p_hit[5] 	0.51441881753782
scalar abilene_nodelay_network.node[5].content_store 	hits[5] 	11070473
scalar abilene_nodelay_network.node[5].content_store 	misses[5] 	10449877
scalar abilene_nodelay_network.node[5].content_store 	decision_yes[5] 	515728
scalar abilene_nodelay_network.node[5].content_store 	decision_no[5] 	9934149
scalar abilene_nodelay_network.node[5].content_store 	decision_ratio[5] 	0.049352542618444
scalar abilene_nodelay_network.node[5].content_store 	"representation_breakdown[5] 11447:57:5:5:2:" 	0
scalar abilene_nodelay_network.node[5].proactive_component 	hdistance[5].proactive_component 	3.2913223140496
scalar abilene_nodelay_network.node[5].proactive_component 	downloads[5].proactive_component 	11616
scalar abilene_nodelay_network.node[5].proactive_component 	avg_time[5].proactive_component 	0
scalar abilene_nodelay_network.node[6].core_layer 	interests[6] 	23168306
scalar abilene_nodelay_network.node[6].core_layer 	repo_load[6] 	4020274
scalar abilene_nodelay_network.node[6].core_layer 	data[6] 	6293995
scalar abilene_nodelay_network.node[6].core_layer 	slots_sent[face$o[1]->client[6]] 	4936133934
scalar abilene_nodelay_network.node[6].core_layer 	slots_sent[face$o[2]->node[5]] 	214436197
scalar abilene_nodelay_network.node[6].core_layer 	slots_sent[face$o[3]->node[7]] 	306800704
scalar abilene_nodelay_network.node[6].content_store 	p_hit[6] 	0.55481125810407
scalar abilene_nodelay_network.node[6].content_store 	hits[6] 	12854037
scalar abilene_nodelay_network.node[6].content_store 	misses[6] 	10314269
scalar abilene_nodelay_network.node[6].content_store 	decision_yes[6] 	630877
scalar abilene_nodelay_network.node[6].content_store 	decision_no[6] 	9683392
scalar abilene_nodelay_network.node[6].content_store 	decision_ratio[6] 	0.061165459229345
scalar abilene_nodelay_network.node[6].content_store 	"representation_breakdown[6] 11445:52:8:2:4:" 	0
scalar abilene_nodelay_network.node[6].proactive_component 	hdistance[6].proactive_component 	3.0308984435198
scalar abilene_nodelay_network.node[6].proactive_component 	downloads[6].proactive_component 	12978
scalar abilene_nodelay_network.node[6].proactive_component 	avg_time[6].proactive_component 	0
scalar abilene_nodelay_network.node[7].core_layer 	interests[7] 	28876724
scalar abilene_nodelay_network.node[7].core_layer 	repo_load[7] 	4758781
scalar abilene_nodelay_network.node[7].core_layer 	data[7] 	9914891
scalar abilene_nodelay_network.node[7].core_layer 	slots_sent[face$o[1]->client[7]] 	4948796227
scalar abilene_nodelay_network.node[7].core_layer 	slots_sent[face$o[2]->node[3]] 	322754392
scalar abilene_nodelay_network.node[7].core_layer 	slots_sent[face$o[3]->node[6]] 	478972173
scalar abilene_nodelay_network.node[7].core_layer 	slots_sent[face$o[4]->node[8]] 	299776682
scalar abilene_nodelay_network.node[7].content_store 	p_hit[7] 	0.49185122245861
scalar abilene_nodelay_network.node[7].content_store 	hits[7] 	14203052
scalar abilene_nodelay_network.node[7].content_store 	misses[7] 	14673672
scalar abilene_nodelay_network.node[7].content_store 	decision_yes[7] 	991558
scalar abilene_nodelay_network.node[7].content_store 	decision_no[7] 	13682114
scalar abilene_nodelay_network.node[7].content_store 	decision_ratio[7] 	0.067573951496258
scalar abilene_nodelay_network.node[7].content_store 	"representation_breakdown[7] 11458:48:5:2:5:" 	0
scalar abilene_nodelay_network.node[7].proactive_component 	hdistance[7].proactive_component 	2.7566526851406
scalar abilene_nodelay_network.node[7].proactive_component 	downloads[7].proactive_component 	14543
scalar abilene_nodelay_network.node[7].proactive_component 	avg_time[7].proactive_component 	0
scalar abilene_nodelay_network.node[8].core_layer 	interests[8] 	28148669
scalar abilene_nodelay_network.node[8].core_layer 	repo_load[8] 	4516567
scalar abilene_nodelay_network.node[8].core_layer 	data[8] 	9448355
scalar abilene_nodelay_network.node[8].core_layer 	slots_sent[face$o[1]->client[8]] 	4781147535
scalar abilene_nodelay_network.node[8].core_layer 	slots_sent[face$o[2]->node[2]] 	300268304
scalar abilene_nodelay_network.node[8].core_layer 	slots_sent[face$o[3]->node[7]] 	295060188
scalar abilene_nodelay_network.node[8].core_layer 	slots_sent[face$o[4]->node[9]] 	431703440
scalar abilene_nodelay_network.node[8].content_store 	p_hit[8] 	0.50388695110238
scalar abilene_nodelay_network.node[8].content_store 	hits[8] 	14183747
scalar abilene_nodelay_network.node[8].content_store 	misses[8] 	13964922
scalar abilene_nodelay_network.node[8].content_store 	decision_yes[8] 	945043
scalar abilene_nodelay_network.node[8].content_store 	decision_no[8] 	13019879
scalar abilene_nodelay_network.node[8].content_store 	decision_ratio[8] 	0.067672630036888
scalar abilene_nodelay_network.node[8].content_store 	"representation_breakdown[8] 11420:55:7:2:6:" 	0
scalar abilene_nodelay_network.node[8].proactive_component 	hdistance[8].proactive_component 	2.6301927776269
scalar abilene_nodelay_network.node[8].proactive_component 	downloads[8].proactive_component 	14732
scalar abilene_nodelay_network.node[8].proactive_component 	avg_time[8].proactive_component 	0
scalar abilene_nodelay_network.node[9].core_layer 	interests[9] 	23276173
scalar abilene_nodelay_network.node[9].core_layer 	repo_load[9] 	4301979
scalar abilene_nodelay_network.node[9].core_layer 	data[9] 	6322221
scalar abilene_nodelay_network.node[9].core_layer 	slots_sent[face$o[1]->client[9]] 	4706782559
scalar abilene_nodelay_network.node[9].core_layer 	slots_sent[face$o[2]->node[10]] 	243438499
scalar abilene_nodelay_network.node[9].core_layer 	slots_sent[face$o[3]->node[8]] 	289792710
scalar abilene_nodelay_network.node[9].content_store 	p_hit[9] 	0.54355898626462
scalar abilene_nodelay_network.node[9].content_store 	hits[9] 	12651973
scalar abilene_nodelay_network.node[9].content_store 	misses[9] 	10624200
scalar abilene_nodelay_network.node[9].content_store 	decision_yes[9] 	632071
scalar abilene_nodelay_network.node[9].content_store 	decision_no[9] 	9992129
scalar abilene_nodelay_network.node[9].content_store 	decision_ratio[9] 	0.059493514805821
scalar abilene_nodelay_network.node[9].content_store 	"representation_breakdown[9] 11431:51:6:1:7:" 	0
scalar abilene_nodelay_network.node[9].proactive_component 	hdistance[9].proactive_component 	2.9498180128553
scalar abilene_nodelay_network.node[9].proactive_component 	downloads[9].proactive_component 	12913
scalar abilene_nodelay_network.node[9].proactive_component 	avg_time[9].proactive_component 	0
scalar abilene_nodelay_network.node[10].core_layer 	interests[10] 	23002456
scalar abilene_nodelay_network.node[10].core_layer 	repo_load[10] 	4983824
scalar abilene_nodelay_network.node[10].core_layer 	data[10] 	5809213
scalar abilene_nodelay_network.node[10].core_layer 	slots_sent[face$o[1]->client[10]] 	4596711861
scalar abilene_nodelay_network.node[10].core_layer 	slots_sent[face$o[2]->node[0]] 	90438002
scalar abilene_nodelay_network.node[10].core_layer 	slots_sent[face$o[3]->node[1]] 	206994982
scalar abilene_nodelay_network.node[10].core_layer 	slots_sent[face$o[4]->node[9]] 	208656177
scalar abilene_nodelay_network.node[10].content_store 	p_hit[10] 	0.53078762546052
scalar abilene_nodelay_network.node[10].content_store 	hits[10] 	12209419
scalar abilene_nodelay_network.node[10].content_store 	misses[10] 	10793037
scalar abilene_nodelay_network.node[10].content_store 	decision_yes[10] 	581959
scalar abilene_nodelay_network.node[10].content_store 	decision_no[10] 	10211078
scalar abilene_nodelay_network.node[10].content_store 	decision_ratio[10] 	0.053919855921924
scalar abilene_nodelay_network.node[10].content_store 	"representation_breakdown[10] 11436:66:8:2:2:" 	0
scalar abilene_nodelay_network.node[10].proactive_component 	hdistance[10].proactive_component 	2.9907067742724
scalar abilene_nodelay_network.node[10].proactive_component 	downloads[10].proactive_component 	12267
scalar abilene_nodelay_network.node[10].proactive_component 	avg_time[10].proactive_component 	0
scalar abilene_nodelay_network.client[0] 	hdistance[0].real 	0.76466581181541
scalar abilene_nodelay_network.client[0] 	downloads[0].real 	17997674
scalar abilene_nodelay_network.client[0] 	avg_time[0].real 	0
scalar abilene_nodelay_network.client[1] 	hdistance[1].real 	0.78576207903307
scalar abilene_nodelay_network.client[1] 	downloads[1].real 	17997136
scalar abilene_nodelay_network.client[1] 	avg_time[1].real 	0
scalar abilene_nodelay_network.client[2] 	hdistance[2].real 	0.76032673113116
scalar abilene_nodelay_network.client[2] 	downloads[2].real 	17996571
scalar abilene_nodelay_network.client[2] 	avg_time[2].real 	0
scalar abilene_nodelay_network.client[3] 	hdistance[3].real 	0.72344470249611
scalar abilene_nodelay_network.client[3] 	downloads[3].real 	17999836
scalar abilene_nodelay_network.client[3] 	avg_time[3].real 	0
scalar abilene_nodelay_network.client[4] 	hdistance[4].real 	0.76372921215455
scalar abilene_nodelay_network.client[4] 	downloads[4].real 	18003910
scalar abilene_nodelay_network.client[4] 	avg_time[4].real 	0
scalar abilene_nodelay_network.client[5] 	hdistance[5].real 	0.83848086999894
scalar abilene_nodelay_network.client[5] 	downloads[5].real 	17998091
scalar abilene_nodelay_network.client[5] 	avg_time[5].real 	0
scalar abilene_nodelay_network.client[6] 	hdistance[6].real 	0.7536103828294
scalar abilene_nodelay_network.client[6] 	downloads[6].real 	18002800
scalar abilene_nodelay_network.client[6] 	avg_time[6].real 	0
scalar abilene_nodelay_network.client[7] 	hdistance[7].real 	0.69287419442062
scalar abilene_nodelay_network.client[7] 	downloads[7].real 	17996674
scalar abilene_nodelay_network.client[7] 	avg_time[7].real 	0
scalar abilene_nodelay_network.client[8] 	hdistance[8].real 	0.67978665054354
scalar abilene_nodelay_network.client[8] 	downloads[8].real 	17994890
scalar abilene_nodelay_network.client[8] 	avg_time[8].real 	0
scalar abilene_nodelay_network.client[9] 	hdistance[9].real 	0.73426680231954
scalar abilene_nodelay_network.client[9] 	downloads[9].real 	17998884
scalar abilene_nodelay_network.client[9] 	avg_time[9].real 	0
scalar abilene_nodelay_network.client[10] 	hdistance[10].real 	0.76752095702421
scalar abilene_nodelay_network.client[10] 	downloads[10].real 	17993609
scalar abilene_nodelay_network.client[10] 	avg_time[10].real 	0
