version 2
run General-803-20140422-19:55:44-27551
attr D costprob0.01
attr F nrr
attr R lru
attr a 1.2
attr configname General
attr csize 10
attr ctlg 10^3
attr datetime 20140422-19:55:44
attr experiment General
attr inifile omnetpp.ini
attr iterationvars "$net=simple_scenario, $rep=7, $priceratiovalue=7, $a=1.2, $ctlg=10^3, $F=nrr, $ttl=1000, $D=costprob0.01, $R=lru, $csize=10"
attr iterationvars2 "$net=simple_scenario, $rep=7, $priceratiovalue=7, $a=1.2, $ctlg=10^3, $F=nrr, $ttl=1000, $D=costprob0.01, $R=lru, $csize=10, $repetition=0"
attr measurement "$net=simple_scenario, $rep=7, $priceratiovalue=7, $a=1.2, $ctlg=10^3, $F=nrr, $ttl=1000, $D=costprob0.01, $R=lru, $csize=10"
attr net simple_scenario
attr network networks.${net=simple_scenario}_network
attr priceratiovalue 7
attr processid 27551
attr rep 7
attr repetition 0
attr replication #0
attr resultdir results
attr runnumber 803
attr seedset 7
attr ttl 1000

scalar . 	a 	1.2
scalar . 	csize 	10
scalar . 	priceratiovalue 	7
scalar . 	rep 	7
scalar . 	ttl 	1000
scalar simple_scenario_network.content_distribution 	repo-0 	3
scalar simple_scenario_network.content_distribution 	repo-1 	4
scalar simple_scenario_network.content_distribution 	client-0 	0
scalar simple_scenario_network.content_distribution 	repo-0_card 	505
scalar simple_scenario_network.content_distribution 	repo-1_card 	495
scalar simple_scenario_network.statistics 	p_hit 	0.29790206627249
scalar simple_scenario_network.statistics 	interests 	79592.6
scalar simple_scenario_network.statistics 	data 	43497.4
scalar simple_scenario_network.statistics 	hdistance 	1.5481781511115
scalar simple_scenario_network.statistics 	avg_time 	0.001985975859
scalar simple_scenario_network.statistics 	downloads 	180476
scalar simple_scenario_network.statistics 	total_cost 	29060
scalar simple_scenario_network.node[0].core_layer 	interests[0] 	180476
scalar simple_scenario_network.node[0].core_layer 	data[0] 	155565
scalar simple_scenario_network.node[0].core_layer 	repo_int[0] 	61922
scalar simple_scenario_network.node[0].content_store 	p_hit[0] 	0.13802943327645
scalar simple_scenario_network.node[0].content_store 	hits[0] 	24911
scalar simple_scenario_network.node[0].content_store 	misses[0] 	155565
scalar simple_scenario_network.node[1].core_layer 	interests[1] 	67715
scalar simple_scenario_network.node[1].core_layer 	data[1] 	33494
scalar simple_scenario_network.node[1].content_store 	p_hit[1] 	0.50536808683453
scalar simple_scenario_network.node[1].content_store 	hits[1] 	34221
scalar simple_scenario_network.node[1].content_store 	misses[1] 	33494
scalar simple_scenario_network.node[2].core_layer 	interests[2] 	87850
scalar simple_scenario_network.node[2].core_layer 	data[2] 	28428
scalar simple_scenario_network.node[2].content_store 	p_hit[2] 	0.67640295959021
scalar simple_scenario_network.node[2].content_store 	hits[2] 	59422
scalar simple_scenario_network.node[2].content_store 	misses[2] 	28428
scalar simple_scenario_network.node[3].core_layer 	interests[3] 	33494
scalar simple_scenario_network.node[3].core_layer 	repo_load[3] 	33494
scalar simple_scenario_network.node[3].core_layer 	data[3] 	0
scalar simple_scenario_network.node[3].content_store 	p_hit[3] 	0
scalar simple_scenario_network.node[3].content_store 	hits[3] 	0
scalar simple_scenario_network.node[3].content_store 	misses[3] 	33494
scalar simple_scenario_network.node[4].core_layer 	interests[4] 	28428
scalar simple_scenario_network.node[4].core_layer 	repo_load[4] 	28428
scalar simple_scenario_network.node[4].core_layer 	data[4] 	0
scalar simple_scenario_network.node[4].content_store 	p_hit[4] 	0
scalar simple_scenario_network.node[4].content_store 	hits[4] 	0
scalar simple_scenario_network.node[4].content_store 	misses[4] 	28428
scalar simple_scenario_network.client[0] 	hdistance[0] 	1.5481781511115
scalar simple_scenario_network.client[0] 	downloads[0] 	180476
scalar simple_scenario_network.client[0] 	avg_time[0] 	0.001985975859
