version 2
run General-3459-20140423-19:59:30-30500
attr D fix0.1
attr F nrr
attr R lru
attr a 0
attr configname General
attr csize 2
attr ctlg 10^3
attr datetime 20140423-19:59:30
attr experiment General
attr inifile omnetpp.ini
attr iterationvars "$net=simple_scenario, $rep=10, $priceratiovalue=7, $a=0, $ctlg=10^3, $F=nrr, $ttl=1000, $D=fix0.1, $R=lru, $csize=2"
attr iterationvars2 "$net=simple_scenario, $rep=10, $priceratiovalue=7, $a=0, $ctlg=10^3, $F=nrr, $ttl=1000, $D=fix0.1, $R=lru, $csize=2, $repetition=0"
attr measurement "$net=simple_scenario, $rep=10, $priceratiovalue=7, $a=0, $ctlg=10^3, $F=nrr, $ttl=1000, $D=fix0.1, $R=lru, $csize=2"
attr net simple_scenario
attr network networks.${net=simple_scenario}_network
attr priceratiovalue 7
attr processid 30500
attr rep 10
attr repetition 0
attr replication #0
attr resultdir results
attr runnumber 3459
attr seedset 10
attr ttl 1000

scalar . 	a 	0
scalar . 	csize 	2
scalar . 	priceratiovalue 	7
scalar . 	rep 	10
scalar . 	ttl 	1000
scalar simple_scenario_network.content_distribution 	repo-0 	3
scalar simple_scenario_network.content_distribution 	repo-1 	4
scalar simple_scenario_network.content_distribution 	client-0 	0
scalar simple_scenario_network.content_distribution 	repo-0_card 	519
scalar simple_scenario_network.content_distribution 	repo-1_card 	481
scalar simple_scenario_network.statistics 	p_hit 	0.0020257741084823
scalar simple_scenario_network.statistics 	interests 	107317
scalar simple_scenario_network.statistics 	data 	71448.2
scalar simple_scenario_network.statistics 	hdistance 	2.9858707288786
scalar simple_scenario_network.statistics 	avg_time 	0.001999759319
scalar simple_scenario_network.statistics 	downloads 	179344
scalar simple_scenario_network.statistics 	total_cost 	86320
scalar simple_scenario_network.node[0].core_layer 	interests[0] 	179344
scalar simple_scenario_network.node[0].core_layer 	data[0] 	178984
scalar simple_scenario_network.node[0].core_layer 	repo_int[0] 	178257
scalar simple_scenario_network.node[0].content_store 	p_hit[0] 	0.0020073155500045
scalar simple_scenario_network.node[0].content_store 	hits[0] 	360
scalar simple_scenario_network.node[0].content_store 	misses[0] 	178984
scalar simple_scenario_network.node[1].core_layer 	interests[1] 	93239
scalar simple_scenario_network.node[1].core_layer 	data[1] 	92871
scalar simple_scenario_network.node[1].content_store 	p_hit[1] 	0.0039468462767726
scalar simple_scenario_network.node[1].content_store 	hits[1] 	368
scalar simple_scenario_network.node[1].content_store 	misses[1] 	92871
scalar simple_scenario_network.node[2].core_layer 	interests[2] 	85745
scalar simple_scenario_network.node[2].core_layer 	data[2] 	85386
scalar simple_scenario_network.node[2].content_store 	p_hit[2] 	0.0041868330514899
scalar simple_scenario_network.node[2].content_store 	hits[2] 	359
scalar simple_scenario_network.node[2].content_store 	misses[2] 	85386
scalar simple_scenario_network.node[3].core_layer 	interests[3] 	92871
scalar simple_scenario_network.node[3].core_layer 	repo_load[3] 	92871
scalar simple_scenario_network.node[3].core_layer 	data[3] 	0
scalar simple_scenario_network.node[3].content_store 	p_hit[3] 	0
scalar simple_scenario_network.node[3].content_store 	hits[3] 	0
scalar simple_scenario_network.node[3].content_store 	misses[3] 	92871
scalar simple_scenario_network.node[4].core_layer 	interests[4] 	85386
scalar simple_scenario_network.node[4].core_layer 	repo_load[4] 	85386
scalar simple_scenario_network.node[4].core_layer 	data[4] 	0
scalar simple_scenario_network.node[4].content_store 	p_hit[4] 	0
scalar simple_scenario_network.node[4].content_store 	hits[4] 	0
scalar simple_scenario_network.node[4].content_store 	misses[4] 	85386
scalar simple_scenario_network.client[0] 	hdistance[0] 	2.9858707288786
scalar simple_scenario_network.client[0] 	downloads[0] 	179344
scalar simple_scenario_network.client[0] 	avg_time[0] 	0.001999759319
