version 2
run General-1512-20140421-20:36:12-16272
attr D lce
attr F nrr
attr R lru
attr a 0.8
attr configname General
attr csize 10
attr ctlg 10^3
attr datetime 20140421-20:36:12
attr experiment General
attr inifile omnetpp.ini
attr iterationvars "$net=simple_scenario, $rep=31, $priceratiovalue=3, $a=0.8, $ctlg=10^3, $F=nrr, $ttl=1000, $D=lce, $R=lru, $csize=10"
attr iterationvars2 "$net=simple_scenario, $rep=31, $priceratiovalue=3, $a=0.8, $ctlg=10^3, $F=nrr, $ttl=1000, $D=lce, $R=lru, $csize=10, $repetition=0"
attr measurement "$net=simple_scenario, $rep=31, $priceratiovalue=3, $a=0.8, $ctlg=10^3, $F=nrr, $ttl=1000, $D=lce, $R=lru, $csize=10"
attr net simple_scenario
attr network networks.${net=simple_scenario}_network
attr priceratiovalue 3
attr processid 16272
attr rep 31
attr repetition 0
attr replication #0
attr resultdir results
attr runnumber 1512
attr seedset 31
attr ttl 1000

scalar . 	a 	0.8
scalar . 	csize 	10
scalar . 	priceratiovalue 	3
scalar . 	rep 	31
scalar . 	ttl 	1000
scalar simple_scenario_network.content_distribution 	repo-0 	3
scalar simple_scenario_network.content_distribution 	repo-1 	4
scalar simple_scenario_network.content_distribution 	client-0 	0
scalar simple_scenario_network.content_distribution 	repo-0_card 	521
scalar simple_scenario_network.content_distribution 	repo-1_card 	479
scalar simple_scenario_network.statistics 	p_hit 	0.047520718810168
scalar simple_scenario_network.statistics 	interests 	100343.6
scalar simple_scenario_network.statistics 	data 	64325
scalar simple_scenario_network.statistics 	hdistance 	2.653493769851
scalar simple_scenario_network.statistics 	avg_time 	0.001998142994
scalar simple_scenario_network.statistics 	downloads 	180092
scalar simple_scenario_network.statistics 	total_cost 	72762
scalar simple_scenario_network.node[0].core_layer 	interests[0] 	180093
scalar simple_scenario_network.node[0].core_layer 	data[0] 	165374
scalar simple_scenario_network.node[0].core_layer 	repo_int[0] 	156251
scalar simple_scenario_network.node[0].content_store 	p_hit[0] 	0.081729995058109
scalar simple_scenario_network.node[0].content_store 	hits[0] 	14719
scalar simple_scenario_network.node[0].content_store 	misses[0] 	165374
scalar simple_scenario_network.node[1].core_layer 	interests[1] 	94109
scalar simple_scenario_network.node[1].core_layer 	data[1] 	88851
scalar simple_scenario_network.node[1].content_store 	p_hit[1] 	0.05587138318333
scalar simple_scenario_network.node[1].content_store 	hits[1] 	5258
scalar simple_scenario_network.node[1].content_store 	misses[1] 	88851
scalar simple_scenario_network.node[2].core_layer 	interests[2] 	71265
scalar simple_scenario_network.node[2].core_layer 	data[2] 	67400
scalar simple_scenario_network.node[2].content_store 	p_hit[2] 	0.054234196309549
scalar simple_scenario_network.node[2].content_store 	hits[2] 	3865
scalar simple_scenario_network.node[2].content_store 	misses[2] 	67400
scalar simple_scenario_network.node[3].core_layer 	interests[3] 	88851
scalar simple_scenario_network.node[3].core_layer 	repo_load[3] 	88851
scalar simple_scenario_network.node[3].core_layer 	data[3] 	0
scalar simple_scenario_network.node[3].content_store 	p_hit[3] 	0
scalar simple_scenario_network.node[3].content_store 	hits[3] 	0
scalar simple_scenario_network.node[3].content_store 	misses[3] 	88851
scalar simple_scenario_network.node[4].core_layer 	interests[4] 	67400
scalar simple_scenario_network.node[4].core_layer 	repo_load[4] 	67400
scalar simple_scenario_network.node[4].core_layer 	data[4] 	0
scalar simple_scenario_network.node[4].content_store 	p_hit[4] 	0
scalar simple_scenario_network.node[4].content_store 	hits[4] 	0
scalar simple_scenario_network.node[4].content_store 	misses[4] 	67400
scalar simple_scenario_network.client[0] 	hdistance[0] 	2.653493769851
scalar simple_scenario_network.client[0] 	downloads[0] 	180092
scalar simple_scenario_network.client[0] 	avg_time[0] 	0.001998142994
