version 2
run General-1866-20140422-20:18:29-18146
attr D lce
attr F nrr
attr R lru
attr a 1.2
attr configname General
attr csize 10
attr ctlg 10^3
attr datetime 20140422-20:18:29
attr experiment General
attr inifile omnetpp.ini
attr iterationvars "$net=simple_scenario, $rep=16, $priceratiovalue=6, $a=1.2, $ctlg=10^3, $F=nrr, $ttl=1000, $D=lce, $R=lru, $csize=10"
attr iterationvars2 "$net=simple_scenario, $rep=16, $priceratiovalue=6, $a=1.2, $ctlg=10^3, $F=nrr, $ttl=1000, $D=lce, $R=lru, $csize=10, $repetition=0"
attr measurement "$net=simple_scenario, $rep=16, $priceratiovalue=6, $a=1.2, $ctlg=10^3, $F=nrr, $ttl=1000, $D=lce, $R=lru, $csize=10"
attr net simple_scenario
attr network networks.${net=simple_scenario}_network
attr priceratiovalue 6
attr processid 18146
attr rep 16
attr repetition 0
attr replication #0
attr resultdir results
attr runnumber 1866
attr seedset 16
attr ttl 1000

scalar . 	a 	1.2
scalar . 	csize 	10
scalar . 	priceratiovalue 	6
scalar . 	rep 	16
scalar . 	ttl 	1000
scalar simple_scenario_network.content_distribution 	repo-0 	3
scalar simple_scenario_network.content_distribution 	repo-1 	4
scalar simple_scenario_network.content_distribution 	client-0 	0
scalar simple_scenario_network.content_distribution 	repo-0_card 	495
scalar simple_scenario_network.content_distribution 	repo-1_card 	505
scalar simple_scenario_network.statistics 	p_hit 	0.2424160274708
scalar simple_scenario_network.statistics 	interests 	75250.8
scalar simple_scenario_network.statistics 	data 	39261.2
scalar simple_scenario_network.statistics 	hdistance 	1.584035388001
scalar simple_scenario_network.statistics 	avg_time 	0.001985118037
scalar simple_scenario_network.statistics 	downloads 	179948
scalar simple_scenario_network.statistics 	total_cost 	44107
scalar simple_scenario_network.node[0].core_layer 	interests[0] 	179948
scalar simple_scenario_network.node[0].core_layer 	data[0] 	107568
scalar simple_scenario_network.node[0].core_layer 	repo_int[0] 	88738
scalar simple_scenario_network.node[0].content_store 	p_hit[0] 	0.40222731011181
scalar simple_scenario_network.node[0].content_store 	hits[0] 	72380
scalar simple_scenario_network.node[0].content_store 	misses[0] 	107568
scalar simple_scenario_network.node[1].core_layer 	interests[1] 	52280
scalar simple_scenario_network.node[1].core_layer 	data[1] 	44734
scalar simple_scenario_network.node[1].content_store 	p_hit[1] 	0.14433817903596
scalar simple_scenario_network.node[1].content_store 	hits[1] 	7546
scalar simple_scenario_network.node[1].content_store 	misses[1] 	44734
scalar simple_scenario_network.node[2].core_layer 	interests[2] 	55288
scalar simple_scenario_network.node[2].core_layer 	data[2] 	44004
scalar simple_scenario_network.node[2].content_store 	p_hit[2] 	0.20409492114021
scalar simple_scenario_network.node[2].content_store 	hits[2] 	11284
scalar simple_scenario_network.node[2].content_store 	misses[2] 	44004
scalar simple_scenario_network.node[3].core_layer 	interests[3] 	44734
scalar simple_scenario_network.node[3].core_layer 	repo_load[3] 	44734
scalar simple_scenario_network.node[3].core_layer 	data[3] 	0
scalar simple_scenario_network.node[3].content_store 	p_hit[3] 	0
scalar simple_scenario_network.node[3].content_store 	hits[3] 	0
scalar simple_scenario_network.node[3].content_store 	misses[3] 	44734
scalar simple_scenario_network.node[4].core_layer 	interests[4] 	44004
scalar simple_scenario_network.node[4].core_layer 	repo_load[4] 	44004
scalar simple_scenario_network.node[4].core_layer 	data[4] 	0
scalar simple_scenario_network.node[4].content_store 	p_hit[4] 	0
scalar simple_scenario_network.node[4].content_store 	hits[4] 	0
scalar simple_scenario_network.node[4].content_store 	misses[4] 	44004
scalar simple_scenario_network.client[0] 	hdistance[0] 	1.584035388001
scalar simple_scenario_network.client[0] 	downloads[0] 	179948
scalar simple_scenario_network.client[0] 	avg_time[0] 	0.001985118037
