version 2
run General-1146-20140422-20:03:02-27969
attr D lce
attr F nrr
attr R lru
attr a 1.2
attr configname General
attr csize 10
attr ctlg 10^3
attr datetime 20140422-20:03:02
attr experiment General
attr inifile omnetpp.ini
attr iterationvars "$net=simple_scenario, $rep=10, $priceratiovalue=6, $a=1.2, $ctlg=10^3, $F=nrr, $ttl=1000, $D=lce, $R=lru, $csize=10"
attr iterationvars2 "$net=simple_scenario, $rep=10, $priceratiovalue=6, $a=1.2, $ctlg=10^3, $F=nrr, $ttl=1000, $D=lce, $R=lru, $csize=10, $repetition=0"
attr measurement "$net=simple_scenario, $rep=10, $priceratiovalue=6, $a=1.2, $ctlg=10^3, $F=nrr, $ttl=1000, $D=lce, $R=lru, $csize=10"
attr net simple_scenario
attr network networks.${net=simple_scenario}_network
attr priceratiovalue 6
attr processid 27969
attr rep 10
attr repetition 0
attr replication #0
attr resultdir results
attr runnumber 1146
attr seedset 10
attr ttl 1000

scalar . 	a 	1.2
scalar . 	csize 	10
scalar . 	priceratiovalue 	6
scalar . 	rep 	10
scalar . 	ttl 	1000
scalar simple_scenario_network.content_distribution 	repo-0 	3
scalar simple_scenario_network.content_distribution 	repo-1 	4
scalar simple_scenario_network.content_distribution 	client-0 	0
scalar simple_scenario_network.content_distribution 	repo-0_card 	519
scalar simple_scenario_network.content_distribution 	repo-1_card 	481
scalar simple_scenario_network.statistics 	p_hit 	0.24191330833867
scalar simple_scenario_network.statistics 	interests 	75642.8
scalar simple_scenario_network.statistics 	data 	39469.8
scalar simple_scenario_network.statistics 	hdistance 	1.5852818400464
scalar simple_scenario_network.statistics 	avg_time 	0.001985362786
scalar simple_scenario_network.statistics 	downloads 	180865
scalar simple_scenario_network.statistics 	total_cost 	44452
scalar simple_scenario_network.node[0].core_layer 	interests[0] 	180865
scalar simple_scenario_network.node[0].core_layer 	data[0] 	107979
scalar simple_scenario_network.node[0].core_layer 	repo_int[0] 	89370
scalar simple_scenario_network.node[0].content_store 	p_hit[0] 	0.40298565228209
scalar simple_scenario_network.node[0].content_store 	hits[0] 	72886
scalar simple_scenario_network.node[0].content_store 	misses[0] 	107979
scalar simple_scenario_network.node[1].core_layer 	interests[1] 	53061
scalar simple_scenario_network.node[1].core_layer 	data[1] 	45011
scalar simple_scenario_network.node[1].content_store 	p_hit[1] 	0.15171218032076
scalar simple_scenario_network.node[1].content_store 	hits[1] 	8050
scalar simple_scenario_network.node[1].content_store 	misses[1] 	45011
scalar simple_scenario_network.node[2].core_layer 	interests[2] 	54918
scalar simple_scenario_network.node[2].core_layer 	data[2] 	44359
scalar simple_scenario_network.node[2].content_store 	p_hit[2] 	0.1922684729961
scalar simple_scenario_network.node[2].content_store 	hits[2] 	10559
scalar simple_scenario_network.node[2].content_store 	misses[2] 	44359
scalar simple_scenario_network.node[3].core_layer 	interests[3] 	45011
scalar simple_scenario_network.node[3].core_layer 	repo_load[3] 	45011
scalar simple_scenario_network.node[3].core_layer 	data[3] 	0
scalar simple_scenario_network.node[3].content_store 	p_hit[3] 	0
scalar simple_scenario_network.node[3].content_store 	hits[3] 	0
scalar simple_scenario_network.node[3].content_store 	misses[3] 	45011
scalar simple_scenario_network.node[4].core_layer 	interests[4] 	44359
scalar simple_scenario_network.node[4].core_layer 	repo_load[4] 	44359
scalar simple_scenario_network.node[4].core_layer 	data[4] 	0
scalar simple_scenario_network.node[4].content_store 	p_hit[4] 	0
scalar simple_scenario_network.node[4].content_store 	hits[4] 	0
scalar simple_scenario_network.node[4].content_store 	misses[4] 	44359
scalar simple_scenario_network.client[0] 	hdistance[0] 	1.5852818400464
scalar simple_scenario_network.client[0] 	downloads[0] 	180865
scalar simple_scenario_network.client[0] 	avg_time[0] 	0.001985362786
