version 2
run General-1386-20140422-20:08:10-28227
attr D lce
attr F nrr
attr R lru
attr a 1.2
attr configname General
attr csize 10
attr ctlg 10^3
attr datetime 20140422-20:08:10
attr experiment General
attr inifile omnetpp.ini
attr iterationvars "$net=simple_scenario, $rep=12, $priceratiovalue=6, $a=1.2, $ctlg=10^3, $F=nrr, $ttl=1000, $D=lce, $R=lru, $csize=10"
attr iterationvars2 "$net=simple_scenario, $rep=12, $priceratiovalue=6, $a=1.2, $ctlg=10^3, $F=nrr, $ttl=1000, $D=lce, $R=lru, $csize=10, $repetition=0"
attr measurement "$net=simple_scenario, $rep=12, $priceratiovalue=6, $a=1.2, $ctlg=10^3, $F=nrr, $ttl=1000, $D=lce, $R=lru, $csize=10"
attr net simple_scenario
attr network networks.${net=simple_scenario}_network
attr priceratiovalue 6
attr processid 28227
attr rep 12
attr repetition 0
attr replication #0
attr resultdir results
attr runnumber 1386
attr seedset 12
attr ttl 1000

scalar . 	a 	1.2
scalar . 	csize 	10
scalar . 	priceratiovalue 	6
scalar . 	rep 	12
scalar . 	ttl 	1000
scalar simple_scenario_network.content_distribution 	repo-0 	3
scalar simple_scenario_network.content_distribution 	repo-1 	4
scalar simple_scenario_network.content_distribution 	client-0 	0
scalar simple_scenario_network.content_distribution 	repo-0_card 	492
scalar simple_scenario_network.content_distribution 	repo-1_card 	508
scalar simple_scenario_network.statistics 	p_hit 	0.24233875899328
scalar simple_scenario_network.statistics 	interests 	75222.8
scalar simple_scenario_network.statistics 	data 	39226.8
scalar simple_scenario_network.statistics 	hdistance 	1.5833259251028
scalar simple_scenario_network.statistics 	avg_time 	0.001985455543
scalar simple_scenario_network.statistics 	downloads 	179980
scalar simple_scenario_network.statistics 	total_cost 	46042
scalar simple_scenario_network.node[0].core_layer 	interests[0] 	179980
scalar simple_scenario_network.node[0].core_layer 	data[0] 	107301
scalar simple_scenario_network.node[0].core_layer 	repo_int[0] 	88833
scalar simple_scenario_network.node[0].content_store 	p_hit[0] 	0.40381709078787
scalar simple_scenario_network.node[0].content_store 	hits[0] 	72679
scalar simple_scenario_network.node[0].content_store 	misses[0] 	107301
scalar simple_scenario_network.node[1].core_layer 	interests[1] 	50432
scalar simple_scenario_network.node[1].core_layer 	data[1] 	42140
scalar simple_scenario_network.node[1].content_store 	p_hit[1] 	0.16441941624365
scalar simple_scenario_network.node[1].content_store 	hits[1] 	8292
scalar simple_scenario_network.node[1].content_store 	misses[1] 	42140
scalar simple_scenario_network.node[2].core_layer 	interests[2] 	56869
scalar simple_scenario_network.node[2].core_layer 	data[2] 	46693
scalar simple_scenario_network.node[2].content_store 	p_hit[2] 	0.1789375582479
scalar simple_scenario_network.node[2].content_store 	hits[2] 	10176
scalar simple_scenario_network.node[2].content_store 	misses[2] 	46693
scalar simple_scenario_network.node[3].core_layer 	interests[3] 	42140
scalar simple_scenario_network.node[3].core_layer 	repo_load[3] 	42140
scalar simple_scenario_network.node[3].core_layer 	data[3] 	0
scalar simple_scenario_network.node[3].content_store 	p_hit[3] 	0
scalar simple_scenario_network.node[3].content_store 	hits[3] 	0
scalar simple_scenario_network.node[3].content_store 	misses[3] 	42140
scalar simple_scenario_network.node[4].core_layer 	interests[4] 	46693
scalar simple_scenario_network.node[4].core_layer 	repo_load[4] 	46693
scalar simple_scenario_network.node[4].core_layer 	data[4] 	0
scalar simple_scenario_network.node[4].content_store 	p_hit[4] 	0
scalar simple_scenario_network.node[4].content_store 	hits[4] 	0
scalar simple_scenario_network.node[4].content_store 	misses[4] 	46693
scalar simple_scenario_network.client[0] 	hdistance[0] 	1.5833259251028
scalar simple_scenario_network.client[0] 	downloads[0] 	179980
scalar simple_scenario_network.client[0] 	avg_time[0] 	0.001985455543
