version 2
run General-1985-20140502-04:52:52-10921
attr D fix0.01
attr F nrr
attr R lru
attr a 0.8
attr configname General
attr csize 1e3
attr ctlg 1e5
attr datetime 20140502-04:52:52
attr experiment General
attr inifile omnetpp.ini
attr iterationvars "$net=three_caches_scenario_3_links, $rep=4, $priceratiovalue=2, $weights=0_0.5_0.5, $a=0.8, $ctlg=1e5, $F=nrr, $ttl=1000, $D=fix0.01, $xi=1, $R=lru, $csize=1e3"
attr iterationvars2 "$net=three_caches_scenario_3_links, $rep=4, $priceratiovalue=2, $weights=0_0.5_0.5, $a=0.8, $ctlg=1e5, $F=nrr, $ttl=1000, $D=fix0.01, $xi=1, $R=lru, $csize=1e3, $repetition=0"
attr measurement "$net=three_caches_scenario_3_links, $rep=4, $priceratiovalue=2, $weights=0_0.5_0.5, $a=0.8, $ctlg=1e5, $F=nrr, $ttl=1000, $D=fix0.01, $xi=1, $R=lru, $csize=1e3"
attr net three_caches_scenario_3_links
attr network networks.${net=three_caches_scenario_3_links}_network
attr priceratiovalue 2
attr processid 10921
attr rep 4
attr repetition 0
attr replication #0
attr resultdir results
attr runnumber 1985
attr seedset 4
attr ttl 1000
attr weights 0_0.5_0.5
attr xi 1

scalar . 	a 	0.8
scalar . 	csize 	1e3
scalar . 	ctlg 	1e5
scalar . 	priceratiovalue 	2
scalar . 	rep 	4
scalar . 	ttl 	1000
scalar . 	xi 	1
scalar three_caches_scenario_3_links_network.content_distribution 	repo-0 	4
scalar three_caches_scenario_3_links_network.content_distribution 	repo-1 	5
scalar three_caches_scenario_3_links_network.content_distribution 	repo-2 	6
scalar three_caches_scenario_3_links_network.content_distribution 	client-0 	0
scalar three_caches_scenario_3_links_network.content_distribution 	repo-0_card 	0
scalar three_caches_scenario_3_links_network.content_distribution 	repo-1_card 	50243
scalar three_caches_scenario_3_links_network.content_distribution 	repo-2_card 	49757
scalar three_caches_scenario_3_links_network.statistics 	p_hit 	0.10080851231114
scalar three_caches_scenario_3_links_network.statistics 	interests 	65411.142857143
scalar three_caches_scenario_3_links_network.statistics 	data 	39694
scalar three_caches_scenario_3_links_network.statistics 	hdistance 	2.2870792134207
scalar three_caches_scenario_3_links_network.statistics 	avg_time 	0
scalar three_caches_scenario_3_links_network.statistics 	downloads 	180020
scalar three_caches_scenario_3_links_network.statistics 	total_cost 	200095
scalar three_caches_scenario_3_links_network.statistics 	total_replicas 	100000
scalar three_caches_scenario_3_links_network.statistics 	interests_sent 	180020
scalar three_caches_scenario_3_links_network.node[0].core_layer 	interests[0] 	180020
scalar three_caches_scenario_3_links_network.node[0].core_layer 	data[0] 	143996
scalar three_caches_scenario_3_links_network.node[0].core_layer 	repo_int[0] 	133862
scalar three_caches_scenario_3_links_network.node[0].content_store 	p_hit[0] 	0.2001110987668
scalar three_caches_scenario_3_links_network.node[0].content_store 	hits[0] 	36024
scalar three_caches_scenario_3_links_network.node[0].content_store 	misses[0] 	143996
scalar three_caches_scenario_3_links_network.node[0].content_store 	decision_yes[0] 	1466
scalar three_caches_scenario_3_links_network.node[0].content_store 	decision_no[0] 	142530
scalar three_caches_scenario_3_links_network.node[1].core_layer 	interests[1] 	0
scalar three_caches_scenario_3_links_network.node[1].core_layer 	data[1] 	0
scalar three_caches_scenario_3_links_network.node[1].content_store 	p_hit[1] 	-nan
scalar three_caches_scenario_3_links_network.node[1].content_store 	hits[1] 	0
scalar three_caches_scenario_3_links_network.node[1].content_store 	misses[1] 	0
scalar three_caches_scenario_3_links_network.node[1].content_store 	decision_yes[1] 	0
scalar three_caches_scenario_3_links_network.node[1].content_store 	decision_no[1] 	0
scalar three_caches_scenario_3_links_network.node[2].core_layer 	interests[2] 	72146
scalar three_caches_scenario_3_links_network.node[2].core_layer 	data[2] 	67629
scalar three_caches_scenario_3_links_network.node[2].content_store 	p_hit[2] 	0.062609153660633
scalar three_caches_scenario_3_links_network.node[2].content_store 	hits[2] 	4517
scalar three_caches_scenario_3_links_network.node[2].content_store 	misses[2] 	67629
scalar three_caches_scenario_3_links_network.node[2].content_store 	decision_yes[2] 	644
scalar three_caches_scenario_3_links_network.node[2].content_store 	decision_no[2] 	66985
scalar three_caches_scenario_3_links_network.node[3].core_layer 	interests[3] 	71850
scalar three_caches_scenario_3_links_network.node[3].core_layer 	data[3] 	66233
scalar three_caches_scenario_3_links_network.node[3].content_store 	p_hit[3] 	0.078176757132916
scalar three_caches_scenario_3_links_network.node[3].content_store 	hits[3] 	5617
scalar three_caches_scenario_3_links_network.node[3].content_store 	misses[3] 	66233
scalar three_caches_scenario_3_links_network.node[3].content_store 	decision_yes[3] 	650
scalar three_caches_scenario_3_links_network.node[3].content_store 	decision_no[3] 	65583
scalar three_caches_scenario_3_links_network.node[4].core_layer 	interests[4] 	0
scalar three_caches_scenario_3_links_network.node[4].core_layer 	data[4] 	0
scalar three_caches_scenario_3_links_network.node[4].content_store 	p_hit[4] 	-nan
scalar three_caches_scenario_3_links_network.node[4].content_store 	hits[4] 	0
scalar three_caches_scenario_3_links_network.node[4].content_store 	misses[4] 	0
scalar three_caches_scenario_3_links_network.node[4].content_store 	decision_yes[4] 	0
scalar three_caches_scenario_3_links_network.node[4].content_store 	decision_no[4] 	0
scalar three_caches_scenario_3_links_network.node[5].core_layer 	interests[5] 	67629
scalar three_caches_scenario_3_links_network.node[5].core_layer 	repo_load[5] 	67629
scalar three_caches_scenario_3_links_network.node[5].core_layer 	data[5] 	0
scalar three_caches_scenario_3_links_network.node[5].content_store 	p_hit[5] 	0
scalar three_caches_scenario_3_links_network.node[5].content_store 	hits[5] 	0
scalar three_caches_scenario_3_links_network.node[5].content_store 	misses[5] 	67629
scalar three_caches_scenario_3_links_network.node[5].content_store 	decision_yes[5] 	0
scalar three_caches_scenario_3_links_network.node[5].content_store 	decision_no[5] 	67629
scalar three_caches_scenario_3_links_network.node[6].core_layer 	interests[6] 	66233
scalar three_caches_scenario_3_links_network.node[6].core_layer 	repo_load[6] 	66233
scalar three_caches_scenario_3_links_network.node[6].core_layer 	data[6] 	0
scalar three_caches_scenario_3_links_network.node[6].content_store 	p_hit[6] 	0
scalar three_caches_scenario_3_links_network.node[6].content_store 	hits[6] 	0
scalar three_caches_scenario_3_links_network.node[6].content_store 	misses[6] 	66233
scalar three_caches_scenario_3_links_network.node[6].content_store 	decision_yes[6] 	0
scalar three_caches_scenario_3_links_network.node[6].content_store 	decision_no[6] 	66233
scalar three_caches_scenario_3_links_network.client[0] 	hdistance[0] 	2.2870792134207
scalar three_caches_scenario_3_links_network.client[0] 	downloads[0] 	180020
scalar three_caches_scenario_3_links_network.client[0] 	avg_time[0] 	0
scalar three_caches_scenario_3_links_network.client[0] 	interests_sent[0] 	180020
