version 2
run General-3-20140625-19:02:06-12341
attr D costprobprodcorr0.01
attr F spr
attr R lru
attr a 1
attr configname General
attr csize 1e3
attr ctlg 1e5
attr datetime 20140625-19:02:06
attr experiment General
attr inifile omnetpp.ini
attr iterationvars "$net=geant_cost, $rep=1, $priceratiovalue=10, $weights=0.333_0.333_0.334, $lambda=100, $a=1, $ctlg=1e5, $F=spr, $ttl=1000, $D=costprobprodcorr0.01, $xi=0.075, $R=lru, $csize=1e3, $pricebits=0, $mytime=1800"
attr iterationvars2 "$net=geant_cost, $rep=1, $priceratiovalue=10, $weights=0.333_0.333_0.334, $lambda=100, $a=1, $ctlg=1e5, $F=spr, $ttl=1000, $D=costprobprodcorr0.01, $xi=0.075, $R=lru, $csize=1e3, $pricebits=0, $mytime=1800, $repetition=0"
attr lambda 100
attr measurement "$net=geant_cost, $rep=1, $priceratiovalue=10, $weights=0.333_0.333_0.334, $lambda=100, $a=1, $ctlg=1e5, $F=spr, $ttl=1000, $D=costprobprodcorr0.01, $xi=0.075, $R=lru, $csize=1e3, $pricebits=0, $mytime=1800"
attr mytime 1800
attr net geant_cost
attr network "networks.${net=geant_cost, abilene_cost}_network"
attr pricebits 0
attr priceratiovalue 10
attr processid 12341
attr rep 1
attr repetition 0
attr replication #0
attr resultdir results
attr runnumber 3
attr seedset 1
attr ttl 1000
attr weights 0.333_0.333_0.334
attr xi 0.075

scalar . 	a 	1
scalar . 	csize 	1e3
scalar . 	ctlg 	1e5
scalar . 	lambda 	100
scalar . 	mytime 	1800
scalar . 	pricebits 	0
scalar . 	priceratiovalue 	10
scalar . 	rep 	1
scalar . 	ttl 	1000
scalar . 	xi 	0.075
scalar geant_cost_network.content_distribution 	repo-0 	22
scalar geant_cost_network.content_distribution 	repo-1 	23
scalar geant_cost_network.content_distribution 	repo-2 	24
scalar geant_cost_network.content_distribution 	client-0 	20
scalar geant_cost_network.content_distribution 	client-1 	10
scalar geant_cost_network.content_distribution 	client-2 	12
scalar geant_cost_network.content_distribution 	client-3 	9
scalar geant_cost_network.content_distribution 	client-4 	5
scalar geant_cost_network.content_distribution 	repo-0_card 	33396
scalar geant_cost_network.content_distribution 	repo-1_card 	33039
scalar geant_cost_network.content_distribution 	repo-2_card 	33565
scalar geant_cost_network.statistics 	repo_popularity[0] 	0.28686251265602
scalar geant_cost_network.statistics 	repo_popularity[1] 	0.2886063426465
scalar geant_cost_network.statistics 	repo_popularity[2] 	0.42453114469748
scalar geant_cost_network.statistics 	stabilization_time 	36060
scalar geant_cost_network.node[7].face$o[4].channel 	price[7] 	0
scalar geant_cost_network.node[7].face$o[4].channel 	represented_price[7] 	0
scalar geant_cost_network.node[8].face$o[3].channel 	price[8] 	0
scalar geant_cost_network.node[8].face$o[3].channel 	represented_price[8] 	0
scalar geant_cost_network.node[21].face$o[5].channel 	price[21] 	0
scalar geant_cost_network.node[21].face$o[5].channel 	represented_price[21] 	0
scalar geant_cost_network.node[22].face$o[1].channel 	price[22] 	0
scalar geant_cost_network.node[22].face$o[1].channel 	represented_price[22] 	0
scalar geant_cost_network.node[23].face$o[1].channel 	price[23] 	1
scalar geant_cost_network.node[23].face$o[1].channel 	represented_price[23] 	1
scalar geant_cost_network.node[24].face$o[1].channel 	price[24] 	10
scalar geant_cost_network.node[24].face$o[1].channel 	represented_price[24] 	10
scalar geant_cost_network.statistics 	p_hit 	0.090166472634728
scalar geant_cost_network.statistics 	interests 	141832.32
scalar geant_cost_network.statistics 	data 	105819.08
scalar geant_cost_network.statistics 	hdistance 	3.6140576602122
scalar geant_cost_network.statistics 	avg_time 	0.005980842709
scalar geant_cost_network.statistics 	downloads 	894314
scalar geant_cost_network.statistics 	total_cost 	1727026
scalar geant_cost_network.statistics 	total_replicas 	100000
scalar geant_cost_network.statistics 	inner_hit 	0.36319570083886
scalar geant_cost_network.statistics 	interests_sent 	900331
scalar geant_cost_network.node[0].core_layer 	interests[0] 	0
scalar geant_cost_network.node[0].core_layer 	data[0] 	0
scalar geant_cost_network.node[0].core_layer 	repo_int[0] 	569503
scalar geant_cost_network.node[0].content_store 	p_hit[0] 	-nan
scalar geant_cost_network.node[0].content_store 	hits[0] 	0
scalar geant_cost_network.node[0].content_store 	misses[0] 	0
scalar geant_cost_network.node[0].content_store 	decision_yes[0] 	0
scalar geant_cost_network.node[0].content_store 	decision_no[0] 	0
scalar geant_cost_network.node[0].content_store 	decision_ratio[0] 	0
scalar geant_cost_network.node[0].content_store 	correction_factor[0] 	0.013699385593096
scalar geant_cost_network.node[0].content_store 	xi[0] 	0.075
scalar geant_cost_network.node[1].core_layer 	interests[1] 	0
scalar geant_cost_network.node[1].core_layer 	data[1] 	0
scalar geant_cost_network.node[1].content_store 	p_hit[1] 	-nan
scalar geant_cost_network.node[1].content_store 	hits[1] 	0
scalar geant_cost_network.node[1].content_store 	misses[1] 	0
scalar geant_cost_network.node[1].content_store 	decision_yes[1] 	0
scalar geant_cost_network.node[1].content_store 	decision_no[1] 	0
scalar geant_cost_network.node[1].content_store 	decision_ratio[1] 	0
scalar geant_cost_network.node[1].content_store 	correction_factor[1] 	0.013699385593096
scalar geant_cost_network.node[1].content_store 	xi[1] 	0.075
scalar geant_cost_network.node[2].core_layer 	interests[2] 	0
scalar geant_cost_network.node[2].core_layer 	data[2] 	0
scalar geant_cost_network.node[2].content_store 	p_hit[2] 	-nan
scalar geant_cost_network.node[2].content_store 	hits[2] 	0
scalar geant_cost_network.node[2].content_store 	misses[2] 	0
scalar geant_cost_network.node[2].content_store 	decision_yes[2] 	0
scalar geant_cost_network.node[2].content_store 	decision_no[2] 	0
scalar geant_cost_network.node[2].content_store 	decision_ratio[2] 	0
scalar geant_cost_network.node[2].content_store 	correction_factor[2] 	0.013699385593096
scalar geant_cost_network.node[2].content_store 	xi[2] 	0.075
scalar geant_cost_network.node[3].core_layer 	interests[3] 	229008
scalar geant_cost_network.node[3].core_layer 	data[3] 	214456
scalar geant_cost_network.node[3].content_store 	p_hit[3] 	0.063534898344163
scalar geant_cost_network.node[3].content_store 	hits[3] 	14550
scalar geant_cost_network.node[3].content_store 	misses[3] 	214458
scalar geant_cost_network.node[3].content_store 	decision_yes[3] 	1470
scalar geant_cost_network.node[3].content_store 	decision_no[3] 	212986
scalar geant_cost_network.node[3].content_store 	decision_ratio[3] 	0.0068545529152833
scalar geant_cost_network.node[3].content_store 	correction_factor[3] 	0.013699385593096
scalar geant_cost_network.node[3].content_store 	xi[3] 	0.075
scalar geant_cost_network.node[4].core_layer 	interests[4] 	306693
scalar geant_cost_network.node[4].core_layer 	data[4] 	294032
scalar geant_cost_network.node[4].content_store 	p_hit[4] 	0.041070386347259
scalar geant_cost_network.node[4].content_store 	hits[4] 	12596
scalar geant_cost_network.node[4].content_store 	misses[4] 	294097
scalar geant_cost_network.node[4].content_store 	decision_yes[4] 	1881
scalar geant_cost_network.node[4].content_store 	decision_no[4] 	292151
scalar geant_cost_network.node[4].content_store 	decision_ratio[4] 	0.0063972628829515
scalar geant_cost_network.node[4].content_store 	correction_factor[4] 	0.013699385593096
scalar geant_cost_network.node[4].content_store 	xi[4] 	0.075
scalar geant_cost_network.node[5].core_layer 	interests[5] 	179797
scalar geant_cost_network.node[5].core_layer 	data[5] 	173844
scalar geant_cost_network.node[5].content_store 	p_hit[5] 	0.021457532661835
scalar geant_cost_network.node[5].content_store 	hits[5] 	3858
scalar geant_cost_network.node[5].content_store 	misses[5] 	175939
scalar geant_cost_network.node[5].content_store 	decision_yes[5] 	874
scalar geant_cost_network.node[5].content_store 	decision_no[5] 	172970
scalar geant_cost_network.node[5].content_store 	decision_ratio[5] 	0.0050274959158786
scalar geant_cost_network.node[5].content_store 	correction_factor[5] 	0.013699385593096
scalar geant_cost_network.node[5].content_store 	xi[5] 	0.075
scalar geant_cost_network.node[6].core_layer 	interests[6] 	102016
scalar geant_cost_network.node[6].core_layer 	data[6] 	96403
scalar geant_cost_network.node[6].content_store 	p_hit[6] 	0.055020781053952
scalar geant_cost_network.node[6].content_store 	hits[6] 	5613
scalar geant_cost_network.node[6].content_store 	misses[6] 	96403
scalar geant_cost_network.node[6].content_store 	decision_yes[6] 	388
scalar geant_cost_network.node[6].content_store 	decision_no[6] 	96015
scalar geant_cost_network.node[6].content_store 	decision_ratio[6] 	0.0040247710133502
scalar geant_cost_network.node[6].content_store 	correction_factor[6] 	0.013699385593096
scalar geant_cost_network.node[6].content_store 	xi[6] 	0.075
scalar geant_cost_network.node[7].core_layer 	interests[7] 	342438
scalar geant_cost_network.node[7].core_layer 	data[7] 	328643
scalar geant_cost_network.node[7].content_store 	p_hit[7] 	0.040255462302665
scalar geant_cost_network.node[7].content_store 	hits[7] 	13785
scalar geant_cost_network.node[7].content_store 	misses[7] 	328653
scalar geant_cost_network.node[7].content_store 	decision_yes[7] 	845
scalar geant_cost_network.node[7].content_store 	decision_no[7] 	327798
scalar geant_cost_network.node[7].content_store 	decision_ratio[7] 	0.0025711790605612
scalar geant_cost_network.node[7].content_store 	correction_factor[7] 	0.013699385593096
scalar geant_cost_network.node[7].content_store 	xi[7] 	0.075
scalar geant_cost_network.node[8].core_layer 	interests[8] 	294813
scalar geant_cost_network.node[8].core_layer 	data[8] 	258631
scalar geant_cost_network.node[8].content_store 	p_hit[8] 	0.12272864493764
scalar geant_cost_network.node[8].content_store 	hits[8] 	36182
scalar geant_cost_network.node[8].content_store 	misses[8] 	258631
scalar geant_cost_network.node[8].content_store 	decision_yes[8] 	2169
scalar geant_cost_network.node[8].content_store 	decision_no[8] 	256462
scalar geant_cost_network.node[8].content_store 	decision_ratio[8] 	0.008386465659569
scalar geant_cost_network.node[8].content_store 	correction_factor[8] 	0.013699385593096
scalar geant_cost_network.node[8].content_store 	xi[8] 	0.075
scalar geant_cost_network.node[9].core_layer 	interests[9] 	404769
scalar geant_cost_network.node[9].core_layer 	data[9] 	359977
scalar geant_cost_network.node[9].content_store 	p_hit[9] 	0.10270549375076
scalar geant_cost_network.node[9].content_store 	hits[9] 	41572
scalar geant_cost_network.node[9].content_store 	misses[9] 	363197
scalar geant_cost_network.node[9].content_store 	decision_yes[9] 	2390
scalar geant_cost_network.node[9].content_store 	decision_no[9] 	357587
scalar geant_cost_network.node[9].content_store 	decision_ratio[9] 	0.0066393130672237
scalar geant_cost_network.node[9].content_store 	correction_factor[9] 	0.013699385593096
scalar geant_cost_network.node[9].content_store 	xi[9] 	0.075
scalar geant_cost_network.node[10].core_layer 	interests[10] 	180099
scalar geant_cost_network.node[10].core_layer 	data[10] 	175516
scalar geant_cost_network.node[10].content_store 	p_hit[10] 	0.017273832725334
scalar geant_cost_network.node[10].content_store 	hits[10] 	3111
scalar geant_cost_network.node[10].content_store 	misses[10] 	176988
scalar geant_cost_network.node[10].content_store 	decision_yes[10] 	975
scalar geant_cost_network.node[10].content_store 	decision_no[10] 	174541
scalar geant_cost_network.node[10].content_store 	decision_ratio[10] 	0.0055550491123316
scalar geant_cost_network.node[10].content_store 	correction_factor[10] 	0.013699385593096
scalar geant_cost_network.node[10].content_store 	xi[10] 	0.075
scalar geant_cost_network.node[11].core_layer 	interests[11] 	0
scalar geant_cost_network.node[11].core_layer 	data[11] 	0
scalar geant_cost_network.node[11].content_store 	p_hit[11] 	-nan
scalar geant_cost_network.node[11].content_store 	hits[11] 	0
scalar geant_cost_network.node[11].content_store 	misses[11] 	0
scalar geant_cost_network.node[11].content_store 	decision_yes[11] 	0
scalar geant_cost_network.node[11].content_store 	decision_no[11] 	0
scalar geant_cost_network.node[11].content_store 	decision_ratio[11] 	0
scalar geant_cost_network.node[11].content_store 	correction_factor[11] 	0.013699385593096
scalar geant_cost_network.node[11].content_store 	xi[11] 	0.075
scalar geant_cost_network.node[12].core_layer 	interests[12] 	316392
scalar geant_cost_network.node[12].core_layer 	data[12] 	278319
scalar geant_cost_network.node[12].content_store 	p_hit[12] 	0.10788515512402
scalar geant_cost_network.node[12].content_store 	hits[12] 	34134
scalar geant_cost_network.node[12].content_store 	misses[12] 	282258
scalar geant_cost_network.node[12].content_store 	decision_yes[12] 	1951
scalar geant_cost_network.node[12].content_store 	decision_no[12] 	276368
scalar geant_cost_network.node[12].content_store 	decision_ratio[12] 	0.0070099418293397
scalar geant_cost_network.node[12].content_store 	correction_factor[12] 	0.013699385593096
scalar geant_cost_network.node[12].content_store 	xi[12] 	0.075
scalar geant_cost_network.node[13].core_layer 	interests[13] 	0
scalar geant_cost_network.node[13].core_layer 	data[13] 	0
scalar geant_cost_network.node[13].content_store 	p_hit[13] 	-nan
scalar geant_cost_network.node[13].content_store 	hits[13] 	0
scalar geant_cost_network.node[13].content_store 	misses[13] 	0
scalar geant_cost_network.node[13].content_store 	decision_yes[13] 	0
scalar geant_cost_network.node[13].content_store 	decision_no[13] 	0
scalar geant_cost_network.node[13].content_store 	decision_ratio[13] 	0
scalar geant_cost_network.node[13].content_store 	correction_factor[13] 	0.013699385593096
scalar geant_cost_network.node[13].content_store 	xi[13] 	0.075
scalar geant_cost_network.node[14].core_layer 	interests[14] 	71827
scalar geant_cost_network.node[14].core_layer 	data[14] 	56718
scalar geant_cost_network.node[14].content_store 	p_hit[14] 	0.21035265290211
scalar geant_cost_network.node[14].content_store 	hits[14] 	15109
scalar geant_cost_network.node[14].content_store 	misses[14] 	56718
scalar geant_cost_network.node[14].content_store 	decision_yes[14] 	512
scalar geant_cost_network.node[14].content_store 	decision_no[14] 	56206
scalar geant_cost_network.node[14].content_store 	decision_ratio[14] 	0.0090271166120103
scalar geant_cost_network.node[14].content_store 	correction_factor[14] 	0.013699385593096
scalar geant_cost_network.node[14].content_store 	xi[14] 	0.075
scalar geant_cost_network.node[15].core_layer 	interests[15] 	0
scalar geant_cost_network.node[15].core_layer 	data[15] 	0
scalar geant_cost_network.node[15].content_store 	p_hit[15] 	-nan
scalar geant_cost_network.node[15].content_store 	hits[15] 	0
scalar geant_cost_network.node[15].content_store 	misses[15] 	0
scalar geant_cost_network.node[15].content_store 	decision_yes[15] 	0
scalar geant_cost_network.node[15].content_store 	decision_no[15] 	0
scalar geant_cost_network.node[15].content_store 	decision_ratio[15] 	0
scalar geant_cost_network.node[15].content_store 	correction_factor[15] 	0.013699385593096
scalar geant_cost_network.node[15].content_store 	xi[15] 	0.075
scalar geant_cost_network.node[16].core_layer 	interests[16] 	0
scalar geant_cost_network.node[16].core_layer 	data[16] 	0
scalar geant_cost_network.node[16].content_store 	p_hit[16] 	-nan
scalar geant_cost_network.node[16].content_store 	hits[16] 	0
scalar geant_cost_network.node[16].content_store 	misses[16] 	0
scalar geant_cost_network.node[16].content_store 	decision_yes[16] 	0
scalar geant_cost_network.node[16].content_store 	decision_no[16] 	0
scalar geant_cost_network.node[16].content_store 	decision_ratio[16] 	0
scalar geant_cost_network.node[16].content_store 	correction_factor[16] 	0.013699385593096
scalar geant_cost_network.node[16].content_store 	xi[16] 	0.075
scalar geant_cost_network.node[17].core_layer 	interests[17] 	0
scalar geant_cost_network.node[17].core_layer 	data[17] 	0
scalar geant_cost_network.node[17].content_store 	p_hit[17] 	-nan
scalar geant_cost_network.node[17].content_store 	hits[17] 	0
scalar geant_cost_network.node[17].content_store 	misses[17] 	0
scalar geant_cost_network.node[17].content_store 	decision_yes[17] 	0
scalar geant_cost_network.node[17].content_store 	decision_no[17] 	0
scalar geant_cost_network.node[17].content_store 	decision_ratio[17] 	0
scalar geant_cost_network.node[17].content_store 	correction_factor[17] 	0.013699385593096
scalar geant_cost_network.node[17].content_store 	xi[17] 	0.075
scalar geant_cost_network.node[18].core_layer 	interests[18] 	96290
scalar geant_cost_network.node[18].core_layer 	data[18] 	92235
scalar geant_cost_network.node[18].content_store 	p_hit[18] 	0.042112368885658
scalar geant_cost_network.node[18].content_store 	hits[18] 	4055
scalar geant_cost_network.node[18].content_store 	misses[18] 	92235
scalar geant_cost_network.node[18].content_store 	decision_yes[18] 	379
scalar geant_cost_network.node[18].content_store 	decision_no[18] 	91856
scalar geant_cost_network.node[18].content_store 	decision_ratio[18] 	0.0041090692253483
scalar geant_cost_network.node[18].content_store 	correction_factor[18] 	0.013699385593096
scalar geant_cost_network.node[18].content_store 	xi[18] 	0.075
scalar geant_cost_network.node[19].core_layer 	interests[19] 	0
scalar geant_cost_network.node[19].core_layer 	data[19] 	0
scalar geant_cost_network.node[19].content_store 	p_hit[19] 	-nan
scalar geant_cost_network.node[19].content_store 	hits[19] 	0
scalar geant_cost_network.node[19].content_store 	misses[19] 	0
scalar geant_cost_network.node[19].content_store 	decision_yes[19] 	0
scalar geant_cost_network.node[19].content_store 	decision_no[19] 	0
scalar geant_cost_network.node[19].content_store 	decision_ratio[19] 	0
scalar geant_cost_network.node[19].content_store 	correction_factor[19] 	0.013699385593096
scalar geant_cost_network.node[19].content_store 	xi[19] 	0.075
scalar geant_cost_network.node[20].core_layer 	interests[20] 	180808
scalar geant_cost_network.node[20].core_layer 	data[20] 	159523
scalar geant_cost_network.node[20].content_store 	p_hit[20] 	0.11599597362949
scalar geant_cost_network.node[20].content_store 	hits[20] 	20973
scalar geant_cost_network.node[20].content_store 	misses[20] 	159835
scalar geant_cost_network.node[20].content_store 	decision_yes[20] 	891
scalar geant_cost_network.node[20].content_store 	decision_no[20] 	158632
scalar geant_cost_network.node[20].content_store 	decision_ratio[20] 	0.0055854014781568
scalar geant_cost_network.node[20].content_store 	correction_factor[20] 	0.013699385593096
scalar geant_cost_network.node[20].content_store 	xi[20] 	0.075
scalar geant_cost_network.node[21].core_layer 	interests[21] 	271355
scalar geant_cost_network.node[21].core_layer 	data[21] 	157180
scalar geant_cost_network.node[21].content_store 	p_hit[21] 	0.42075878461794
scalar geant_cost_network.node[21].content_store 	hits[21] 	114175
scalar geant_cost_network.node[21].content_store 	misses[21] 	157180
scalar geant_cost_network.node[21].content_store 	decision_yes[21] 	2555
scalar geant_cost_network.node[21].content_store 	decision_no[21] 	154625
scalar geant_cost_network.node[21].content_store 	decision_ratio[21] 	0.016255248759384
scalar geant_cost_network.node[21].content_store 	correction_factor[21] 	0.013699385593096
scalar geant_cost_network.node[21].content_store 	xi[21] 	0.075
scalar geant_cost_network.node[22].core_layer 	interests[22] 	257097
scalar geant_cost_network.node[22].core_layer 	repo_load[22] 	257097
scalar geant_cost_network.node[22].core_layer 	data[22] 	0
scalar geant_cost_network.node[22].content_store 	p_hit[22] 	0
scalar geant_cost_network.node[22].content_store 	hits[22] 	0
scalar geant_cost_network.node[22].content_store 	misses[22] 	257097
scalar geant_cost_network.node[22].content_store 	decision_yes[22] 	0
scalar geant_cost_network.node[22].content_store 	decision_no[22] 	257097
scalar geant_cost_network.node[22].content_store 	decision_ratio[22] 	0
scalar geant_cost_network.node[23].core_layer 	interests[23] 	155226
scalar geant_cost_network.node[23].core_layer 	repo_load[23] 	155226
scalar geant_cost_network.node[23].core_layer 	data[23] 	0
scalar geant_cost_network.node[23].content_store 	p_hit[23] 	0
scalar geant_cost_network.node[23].content_store 	hits[23] 	0
scalar geant_cost_network.node[23].content_store 	misses[23] 	155226
scalar geant_cost_network.node[23].content_store 	decision_yes[23] 	0
scalar geant_cost_network.node[23].content_store 	decision_no[23] 	155226
scalar geant_cost_network.node[23].content_store 	decision_ratio[23] 	0
scalar geant_cost_network.node[24].core_layer 	interests[24] 	157180
scalar geant_cost_network.node[24].core_layer 	repo_load[24] 	157180
scalar geant_cost_network.node[24].core_layer 	data[24] 	0
scalar geant_cost_network.node[24].content_store 	p_hit[24] 	0
scalar geant_cost_network.node[24].content_store 	hits[24] 	0
scalar geant_cost_network.node[24].content_store 	misses[24] 	157180
scalar geant_cost_network.node[24].content_store 	decision_yes[24] 	0
scalar geant_cost_network.node[24].content_store 	decision_no[24] 	157180
scalar geant_cost_network.node[24].content_store 	decision_ratio[24] 	0
scalar geant_cost_network.client[5] 	hdistance[5] 	3.3125794870063
scalar geant_cost_network.client[5] 	downloads[5] 	177702
scalar geant_cost_network.client[5] 	avg_time[5] 	0.009951416162
scalar geant_cost_network.client[5] 	interests_sent[5] 	179797
scalar geant_cost_network.client[9] 	hdistance[9] 	3.4096764269933
scalar geant_cost_network.client[9] 	downloads[9] 	178785
scalar geant_cost_network.client[9] 	avg_time[9] 	0.003898333447
scalar geant_cost_network.client[9] 	interests_sent[9] 	179943
scalar geant_cost_network.client[10] 	hdistance[10] 	4.3623248445085
scalar geant_cost_network.client[10] 	downloads[10] 	178627
scalar geant_cost_network.client[10] 	avg_time[10] 	0.005828587156
scalar geant_cost_network.client[10] 	interests_sent[10] 	180099
scalar geant_cost_network.client[12] 	hdistance[12] 	3.6206856030083
scalar geant_cost_network.client[12] 	downloads[12] 	178704
scalar geant_cost_network.client[12] 	avg_time[12] 	0.004565046956
scalar geant_cost_network.client[12] 	interests_sent[12] 	179684
scalar geant_cost_network.client[20] 	hdistance[20] 	3.3650219395444
scalar geant_cost_network.client[20] 	downloads[20] 	180496
scalar geant_cost_network.client[20] 	avg_time[20] 	0.005660829828
scalar geant_cost_network.client[20] 	interests_sent[20] 	180808
