version 2
run General-495-20140502-13:12:17-16025
attr D fix0.5
attr F nrr
attr R lru
attr a 1.2
attr configname General
attr csize 1e3
attr ctlg 1e5
attr datetime 20140502-13:12:17
attr experiment General
attr inifile omnetpp.ini
attr iterationvars "$net=three_caches_scenario_3_links, $rep=4, $priceratiovalue=2, $weights=0.333_0.333_0.334, $a=1.2, $ctlg=1e5, $F=nrr, $ttl=1000, $D=fix0.5, $xi=1, $R=lru, $csize=1e3"
attr iterationvars2 "$net=three_caches_scenario_3_links, $rep=4, $priceratiovalue=2, $weights=0.333_0.333_0.334, $a=1.2, $ctlg=1e5, $F=nrr, $ttl=1000, $D=fix0.5, $xi=1, $R=lru, $csize=1e3, $repetition=0"
attr measurement "$net=three_caches_scenario_3_links, $rep=4, $priceratiovalue=2, $weights=0.333_0.333_0.334, $a=1.2, $ctlg=1e5, $F=nrr, $ttl=1000, $D=fix0.5, $xi=1, $R=lru, $csize=1e3"
attr net three_caches_scenario_3_links
attr network networks.${net=three_caches_scenario_3_links}_network
attr priceratiovalue 2
attr processid 16025
attr rep 4
attr repetition 0
attr replication #0
attr resultdir results
attr runnumber 495
attr seedset 4
attr ttl 1000
attr weights 0.333_0.333_0.334
attr xi 1

scalar . 	a 	1.2
scalar . 	csize 	1e3
scalar . 	ctlg 	1e5
scalar . 	priceratiovalue 	2
scalar . 	rep 	4
scalar . 	ttl 	1000
scalar . 	xi 	1
scalar three_caches_scenario_3_links_network.content_distribution 	repo-0 	4
scalar three_caches_scenario_3_links_network.content_distribution 	repo-1 	5
scalar three_caches_scenario_3_links_network.content_distribution 	repo-2 	6
scalar three_caches_scenario_3_links_network.content_distribution 	client-0 	0
scalar three_caches_scenario_3_links_network.content_distribution 	repo-0_card 	33584
scalar three_caches_scenario_3_links_network.content_distribution 	repo-1_card 	33055
scalar three_caches_scenario_3_links_network.content_distribution 	repo-2_card 	33361
scalar three_caches_scenario_3_links_network.statistics 	p_hit 	0.5207853525864
scalar three_caches_scenario_3_links_network.statistics 	interests 	38395.857142857
scalar three_caches_scenario_3_links_network.statistics 	data 	12692.714285714
scalar three_caches_scenario_3_links_network.statistics 	hdistance 	0.62309778681874
scalar three_caches_scenario_3_links_network.statistics 	avg_time 	0
scalar three_caches_scenario_3_links_network.statistics 	downloads 	179922
scalar three_caches_scenario_3_links_network.statistics 	total_cost 	35196
scalar three_caches_scenario_3_links_network.statistics 	total_replicas 	100000
scalar three_caches_scenario_3_links_network.statistics 	interests_sent 	179922
scalar three_caches_scenario_3_links_network.node[0].core_layer 	interests[0] 	179922
scalar three_caches_scenario_3_links_network.node[0].core_layer 	data[0] 	48899
scalar three_caches_scenario_3_links_network.node[0].core_layer 	repo_int[0] 	39950
scalar three_caches_scenario_3_links_network.node[0].content_store 	p_hit[0] 	0.72822111804004
scalar three_caches_scenario_3_links_network.node[0].content_store 	hits[0] 	131023
scalar three_caches_scenario_3_links_network.node[0].content_store 	misses[0] 	48899
scalar three_caches_scenario_3_links_network.node[0].content_store 	decision_yes[0] 	24499
scalar three_caches_scenario_3_links_network.node[0].content_store 	decision_no[0] 	24400
scalar three_caches_scenario_3_links_network.node[1].core_layer 	interests[1] 	16690
scalar three_caches_scenario_3_links_network.node[1].core_layer 	data[1] 	16690
scalar three_caches_scenario_3_links_network.node[1].content_store 	p_hit[1] 	0
scalar three_caches_scenario_3_links_network.node[1].content_store 	hits[1] 	0
scalar three_caches_scenario_3_links_network.node[1].content_store 	misses[1] 	16690
scalar three_caches_scenario_3_links_network.node[1].content_store 	decision_yes[1] 	0
scalar three_caches_scenario_3_links_network.node[1].content_store 	decision_no[1] 	16690
scalar three_caches_scenario_3_links_network.node[2].core_layer 	interests[2] 	15678
scalar three_caches_scenario_3_links_network.node[2].core_layer 	data[2] 	11324
scalar three_caches_scenario_3_links_network.node[2].content_store 	p_hit[2] 	0.2777139941319
scalar three_caches_scenario_3_links_network.node[2].content_store 	hits[2] 	4354
scalar three_caches_scenario_3_links_network.node[2].content_store 	misses[2] 	11324
scalar three_caches_scenario_3_links_network.node[2].content_store 	decision_yes[2] 	5676
scalar three_caches_scenario_3_links_network.node[2].content_store 	decision_no[2] 	5648
scalar three_caches_scenario_3_links_network.node[3].core_layer 	interests[3] 	16531
scalar three_caches_scenario_3_links_network.node[3].core_layer 	data[3] 	11936
scalar three_caches_scenario_3_links_network.node[3].content_store 	p_hit[3] 	0.27796261569173
scalar three_caches_scenario_3_links_network.node[3].content_store 	hits[3] 	4595
scalar three_caches_scenario_3_links_network.node[3].content_store 	misses[3] 	11936
scalar three_caches_scenario_3_links_network.node[3].content_store 	decision_yes[3] 	6025
scalar three_caches_scenario_3_links_network.node[3].content_store 	decision_no[3] 	5911
scalar three_caches_scenario_3_links_network.node[4].core_layer 	interests[4] 	16690
scalar three_caches_scenario_3_links_network.node[4].core_layer 	repo_load[4] 	16690
scalar three_caches_scenario_3_links_network.node[4].core_layer 	data[4] 	0
scalar three_caches_scenario_3_links_network.node[4].content_store 	p_hit[4] 	0
scalar three_caches_scenario_3_links_network.node[4].content_store 	hits[4] 	0
scalar three_caches_scenario_3_links_network.node[4].content_store 	misses[4] 	16690
scalar three_caches_scenario_3_links_network.node[4].content_store 	decision_yes[4] 	0
scalar three_caches_scenario_3_links_network.node[4].content_store 	decision_no[4] 	16690
scalar three_caches_scenario_3_links_network.node[5].core_layer 	interests[5] 	11324
scalar three_caches_scenario_3_links_network.node[5].core_layer 	repo_load[5] 	11324
scalar three_caches_scenario_3_links_network.node[5].core_layer 	data[5] 	0
scalar three_caches_scenario_3_links_network.node[5].content_store 	p_hit[5] 	0
scalar three_caches_scenario_3_links_network.node[5].content_store 	hits[5] 	0
scalar three_caches_scenario_3_links_network.node[5].content_store 	misses[5] 	11324
scalar three_caches_scenario_3_links_network.node[5].content_store 	decision_yes[5] 	0
scalar three_caches_scenario_3_links_network.node[5].content_store 	decision_no[5] 	11324
scalar three_caches_scenario_3_links_network.node[6].core_layer 	interests[6] 	11936
scalar three_caches_scenario_3_links_network.node[6].core_layer 	repo_load[6] 	11936
scalar three_caches_scenario_3_links_network.node[6].core_layer 	data[6] 	0
scalar three_caches_scenario_3_links_network.node[6].content_store 	p_hit[6] 	0
scalar three_caches_scenario_3_links_network.node[6].content_store 	hits[6] 	0
scalar three_caches_scenario_3_links_network.node[6].content_store 	misses[6] 	11936
scalar three_caches_scenario_3_links_network.node[6].content_store 	decision_yes[6] 	0
scalar three_caches_scenario_3_links_network.node[6].content_store 	decision_no[6] 	11936
scalar three_caches_scenario_3_links_network.client[0] 	hdistance[0] 	0.62309778681874
scalar three_caches_scenario_3_links_network.client[0] 	downloads[0] 	179922
scalar three_caches_scenario_3_links_network.client[0] 	avg_time[0] 	0
scalar three_caches_scenario_3_links_network.client[0] 	interests_sent[0] 	179922
