version 2
run General-2417-20140502-05:45:54-11368
attr D fix0.01
attr F nrr
attr R lru
attr a 0.8
attr configname General
attr csize 1e3
attr ctlg 1e5
attr datetime 20140502-05:45:54
attr experiment General
attr inifile omnetpp.ini
attr iterationvars "$net=three_caches_scenario_3_links, $rep=5, $priceratiovalue=1, $weights=0_0.5_0.5, $a=0.8, $ctlg=1e5, $F=nrr, $ttl=1000, $D=fix0.01, $xi=1, $R=lru, $csize=1e3"
attr iterationvars2 "$net=three_caches_scenario_3_links, $rep=5, $priceratiovalue=1, $weights=0_0.5_0.5, $a=0.8, $ctlg=1e5, $F=nrr, $ttl=1000, $D=fix0.01, $xi=1, $R=lru, $csize=1e3, $repetition=0"
attr measurement "$net=three_caches_scenario_3_links, $rep=5, $priceratiovalue=1, $weights=0_0.5_0.5, $a=0.8, $ctlg=1e5, $F=nrr, $ttl=1000, $D=fix0.01, $xi=1, $R=lru, $csize=1e3"
attr net three_caches_scenario_3_links
attr network networks.${net=three_caches_scenario_3_links}_network
attr priceratiovalue 1
attr processid 11368
attr rep 5
attr repetition 0
attr replication #0
attr resultdir results
attr runnumber 2417
attr seedset 5
attr ttl 1000
attr weights 0_0.5_0.5
attr xi 1

scalar . 	a 	0.8
scalar . 	csize 	1e3
scalar . 	ctlg 	1e5
scalar . 	priceratiovalue 	1
scalar . 	rep 	5
scalar . 	ttl 	1000
scalar . 	xi 	1
scalar three_caches_scenario_3_links_network.content_distribution 	repo-0 	4
scalar three_caches_scenario_3_links_network.content_distribution 	repo-1 	5
scalar three_caches_scenario_3_links_network.content_distribution 	repo-2 	6
scalar three_caches_scenario_3_links_network.content_distribution 	client-0 	0
scalar three_caches_scenario_3_links_network.content_distribution 	repo-0_card 	0
scalar three_caches_scenario_3_links_network.content_distribution 	repo-1_card 	49909
scalar three_caches_scenario_3_links_network.content_distribution 	repo-2_card 	50091
scalar three_caches_scenario_3_links_network.statistics 	p_hit 	0.099670578815215
scalar three_caches_scenario_3_links_network.statistics 	interests 	65656.285714286
scalar three_caches_scenario_3_links_network.statistics 	data 	39857.428571429
scalar three_caches_scenario_3_links_network.statistics 	hdistance 	2.2912753610348
scalar three_caches_scenario_3_links_network.statistics 	avg_time 	0
scalar three_caches_scenario_3_links_network.statistics 	downloads 	180592
scalar three_caches_scenario_3_links_network.statistics 	total_cost 	134784
scalar three_caches_scenario_3_links_network.statistics 	total_replicas 	100000
scalar three_caches_scenario_3_links_network.statistics 	interests_sent 	180592
scalar three_caches_scenario_3_links_network.node[0].core_layer 	interests[0] 	180592
scalar three_caches_scenario_3_links_network.node[0].core_layer 	data[0] 	144218
scalar three_caches_scenario_3_links_network.node[0].core_layer 	repo_int[0] 	134784
scalar three_caches_scenario_3_links_network.node[0].content_store 	p_hit[0] 	0.20141534508727
scalar three_caches_scenario_3_links_network.node[0].content_store 	hits[0] 	36374
scalar three_caches_scenario_3_links_network.node[0].content_store 	misses[0] 	144218
scalar three_caches_scenario_3_links_network.node[0].content_store 	decision_yes[0] 	1510
scalar three_caches_scenario_3_links_network.node[0].content_store 	decision_no[0] 	142708
scalar three_caches_scenario_3_links_network.node[1].core_layer 	interests[1] 	0
scalar three_caches_scenario_3_links_network.node[1].core_layer 	data[1] 	0
scalar three_caches_scenario_3_links_network.node[1].content_store 	p_hit[1] 	-nan
scalar three_caches_scenario_3_links_network.node[1].content_store 	hits[1] 	0
scalar three_caches_scenario_3_links_network.node[1].content_store 	misses[1] 	0
scalar three_caches_scenario_3_links_network.node[1].content_store 	decision_yes[1] 	0
scalar three_caches_scenario_3_links_network.node[1].content_store 	decision_no[1] 	0
scalar three_caches_scenario_3_links_network.node[2].core_layer 	interests[2] 	72106
scalar three_caches_scenario_3_links_network.node[2].core_layer 	data[2] 	67444
scalar three_caches_scenario_3_links_network.node[2].content_store 	p_hit[2] 	0.064654813746429
scalar three_caches_scenario_3_links_network.node[2].content_store 	hits[2] 	4662
scalar three_caches_scenario_3_links_network.node[2].content_store 	misses[2] 	67444
scalar three_caches_scenario_3_links_network.node[2].content_store 	decision_yes[2] 	709
scalar three_caches_scenario_3_links_network.node[2].content_store 	decision_no[2] 	66735
scalar three_caches_scenario_3_links_network.node[3].core_layer 	interests[3] 	72112
scalar three_caches_scenario_3_links_network.node[3].core_layer 	data[3] 	67340
scalar three_caches_scenario_3_links_network.node[3].content_store 	p_hit[3] 	0.066174839139117
scalar three_caches_scenario_3_links_network.node[3].content_store 	hits[3] 	4772
scalar three_caches_scenario_3_links_network.node[3].content_store 	misses[3] 	67340
scalar three_caches_scenario_3_links_network.node[3].content_store 	decision_yes[3] 	701
scalar three_caches_scenario_3_links_network.node[3].content_store 	decision_no[3] 	66639
scalar three_caches_scenario_3_links_network.node[4].core_layer 	interests[4] 	0
scalar three_caches_scenario_3_links_network.node[4].core_layer 	data[4] 	0
scalar three_caches_scenario_3_links_network.node[4].content_store 	p_hit[4] 	-nan
scalar three_caches_scenario_3_links_network.node[4].content_store 	hits[4] 	0
scalar three_caches_scenario_3_links_network.node[4].content_store 	misses[4] 	0
scalar three_caches_scenario_3_links_network.node[4].content_store 	decision_yes[4] 	0
scalar three_caches_scenario_3_links_network.node[4].content_store 	decision_no[4] 	0
scalar three_caches_scenario_3_links_network.node[5].core_layer 	interests[5] 	67444
scalar three_caches_scenario_3_links_network.node[5].core_layer 	repo_load[5] 	67444
scalar three_caches_scenario_3_links_network.node[5].core_layer 	data[5] 	0
scalar three_caches_scenario_3_links_network.node[5].content_store 	p_hit[5] 	0
scalar three_caches_scenario_3_links_network.node[5].content_store 	hits[5] 	0
scalar three_caches_scenario_3_links_network.node[5].content_store 	misses[5] 	67444
scalar three_caches_scenario_3_links_network.node[5].content_store 	decision_yes[5] 	0
scalar three_caches_scenario_3_links_network.node[5].content_store 	decision_no[5] 	67444
scalar three_caches_scenario_3_links_network.node[6].core_layer 	interests[6] 	67340
scalar three_caches_scenario_3_links_network.node[6].core_layer 	repo_load[6] 	67340
scalar three_caches_scenario_3_links_network.node[6].core_layer 	data[6] 	0
scalar three_caches_scenario_3_links_network.node[6].content_store 	p_hit[6] 	0
scalar three_caches_scenario_3_links_network.node[6].content_store 	hits[6] 	0
scalar three_caches_scenario_3_links_network.node[6].content_store 	misses[6] 	67340
scalar three_caches_scenario_3_links_network.node[6].content_store 	decision_yes[6] 	0
scalar three_caches_scenario_3_links_network.node[6].content_store 	decision_no[6] 	67340
scalar three_caches_scenario_3_links_network.client[0] 	hdistance[0] 	2.2912753610348
scalar three_caches_scenario_3_links_network.client[0] 	downloads[0] 	180592
scalar three_caches_scenario_3_links_network.client[0] 	avg_time[0] 	0
scalar three_caches_scenario_3_links_network.client[0] 	interests_sent[0] 	180592
