version 2
run General-17-20140418-15:05:46-1424
attr D costprob0.01
attr F nrr
attr R lru
attr a 1
attr configname General
attr csize 10
attr ctlg 10^6
attr datetime 20140418-15:05:46
attr experiment General
attr inifile omnetpp.ini
attr iterationvars "$net=simple_scenario, $rep=1, $priceratiovalue=3, $a=1, $ctlg=10^6, $F=nrr, $ttl=1000, $D=costprob0.01, $R=lru, $csize=10"
attr iterationvars2 "$net=simple_scenario, $rep=1, $priceratiovalue=3, $a=1, $ctlg=10^6, $F=nrr, $ttl=1000, $D=costprob0.01, $R=lru, $csize=10, $repetition=0"
attr measurement "$net=simple_scenario, $rep=1, $priceratiovalue=3, $a=1, $ctlg=10^6, $F=nrr, $ttl=1000, $D=costprob0.01, $R=lru, $csize=10"
attr net simple_scenario
attr network networks.${net=simple_scenario}_network
attr priceratiovalue 3
attr processid 1424
attr rep 1
attr repetition 0
attr replication #0
attr resultdir results
attr runnumber 17
attr seedset 1
attr ttl 1000

scalar . 	a 	1
scalar . 	csize 	10
scalar . 	priceratiovalue 	3
scalar . 	rep 	1
scalar . 	ttl 	1000
scalar simple_scenario_network.content_distribution 	repo-0 	3
scalar simple_scenario_network.content_distribution 	repo-1 	4
scalar simple_scenario_network.content_distribution 	client-0 	0
scalar simple_scenario_network.content_distribution 	repo-0_card 	500011
scalar simple_scenario_network.content_distribution 	repo-1_card 	499989
scalar simple_scenario_network.statistics 	p_hit 	0.087537961312471
scalar simple_scenario_network.statistics 	interests 	96940.8
scalar simple_scenario_network.statistics 	data 	60966
scalar simple_scenario_network.statistics 	hdistance 	2.4587989370336
scalar simple_scenario_network.statistics 	avg_time 	0.001998499439
scalar simple_scenario_network.statistics 	downloads 	179874
scalar simple_scenario_network.statistics 	total_cost 	68347
scalar simple_scenario_network.node[0].core_layer 	interests[0] 	179874
scalar simple_scenario_network.node[0].core_layer 	data[0] 	167386
scalar simple_scenario_network.node[0].core_layer 	repo_int[0] 	137444
scalar simple_scenario_network.node[0].content_store 	p_hit[0] 	0.069426376241147
scalar simple_scenario_network.node[0].content_store 	hits[0] 	12488
scalar simple_scenario_network.node[0].content_store 	misses[0] 	167386
scalar simple_scenario_network.node[1].core_layer 	interests[1] 	80600
scalar simple_scenario_network.node[1].core_layer 	data[1] 	69472
scalar simple_scenario_network.node[1].content_store 	p_hit[1] 	0.13806451612903
scalar simple_scenario_network.node[1].content_store 	hits[1] 	11128
scalar simple_scenario_network.node[1].content_store 	misses[1] 	69472
scalar simple_scenario_network.node[2].core_layer 	interests[2] 	86786
scalar simple_scenario_network.node[2].core_layer 	data[2] 	67972
scalar simple_scenario_network.node[2].content_store 	p_hit[2] 	0.21678611757657
scalar simple_scenario_network.node[2].content_store 	hits[2] 	18814
scalar simple_scenario_network.node[2].content_store 	misses[2] 	67972
scalar simple_scenario_network.node[3].core_layer 	interests[3] 	69472
scalar simple_scenario_network.node[3].core_layer 	repo_load[3] 	69472
scalar simple_scenario_network.node[3].core_layer 	data[3] 	0
scalar simple_scenario_network.node[3].content_store 	p_hit[3] 	0
scalar simple_scenario_network.node[3].content_store 	hits[3] 	0
scalar simple_scenario_network.node[3].content_store 	misses[3] 	69472
scalar simple_scenario_network.node[4].core_layer 	interests[4] 	67972
scalar simple_scenario_network.node[4].core_layer 	repo_load[4] 	67972
scalar simple_scenario_network.node[4].core_layer 	data[4] 	0
scalar simple_scenario_network.node[4].content_store 	p_hit[4] 	0
scalar simple_scenario_network.node[4].content_store 	hits[4] 	0
scalar simple_scenario_network.node[4].content_store 	misses[4] 	67972
scalar simple_scenario_network.client[0] 	hdistance[0] 	2.4587989370336
scalar simple_scenario_network.client[0] 	downloads[0] 	179874
scalar simple_scenario_network.client[0] 	avg_time[0] 	0.001998499439
