version 2
run General-2-20150519-13:10:25-30102
attr D fix0.1
attr F nrr
attr R lru
attr a 1
attr configname General
attr datetime 20150519-13:10:25
attr experiment General
attr inifile omnetpp.ini
attr iterationvars "$net=geant, $rep=0, $a=1, $F=nrr, $ttl=1000, $D=fix0.1, $R=lru"
attr iterationvars2 "$net=geant, $rep=0, $a=1, $F=nrr, $ttl=1000, $D=fix0.1, $R=lru, $repetition=0"
attr measurement "$net=geant, $rep=0, $a=1, $F=nrr, $ttl=1000, $D=fix0.1, $R=lru"
attr net geant
attr network networks.${net=geant}_network
attr processid 30102
attr rep 0
attr repetition 0
attr replication #0
attr resultdir results
attr runnumber 2
attr seedset 0
attr ttl 1000

scalar . 	a 	1
scalar . 	rep 	0
scalar . 	ttl 	1000
scalar geant_network.content_distribution 	repo-0 	5
scalar geant_network.content_distribution 	client-0 	11
scalar geant_network.content_distribution 	repo-0_card 	10000
scalar geant_network.content_distribution 	repo-0_price 	0
scalar geant_network.statistics 	stabilization_time 	36120
scalar geant_network.statistics 	p_hit 	0.22289286484156
scalar geant_network.statistics 	interests 	210.86363636364
scalar geant_network.statistics 	data 	126.13636363636
scalar geant_network.statistics 	hdistance 	1.9340128755365
scalar geant_network.statistics 	avg_time 	0.005167767783
scalar geant_network.statistics 	downloads 	1864
scalar geant_network.statistics 	total_cost 	0
scalar geant_network.statistics 	total_replicas 	10000
scalar geant_network.statistics 	inner_hit 	0.55472103004292
scalar geant_network.statistics 	interests_sent 	1864
scalar geant_network.node[0].core_layer 	interests[0] 	0
scalar geant_network.node[0].core_layer 	data[0] 	0
scalar geant_network.node[0].core_layer 	repo_int[0] 	830
scalar geant_network.node[0].content_store 	p_hit[0] 	-nan
scalar geant_network.node[0].content_store 	hits[0] 	0
scalar geant_network.node[0].content_store 	misses[0] 	0
scalar geant_network.node[0].content_store 	decision_yes[0] 	0
scalar geant_network.node[0].content_store 	decision_no[0] 	0
scalar geant_network.node[0].content_store 	decision_ratio[0] 	0
scalar geant_network.node[1].core_layer 	interests[1] 	0
scalar geant_network.node[1].core_layer 	data[1] 	0
scalar geant_network.node[1].content_store 	p_hit[1] 	-nan
scalar geant_network.node[1].content_store 	hits[1] 	0
scalar geant_network.node[1].content_store 	misses[1] 	0
scalar geant_network.node[1].content_store 	decision_yes[1] 	0
scalar geant_network.node[1].content_store 	decision_no[1] 	0
scalar geant_network.node[1].content_store 	decision_ratio[1] 	0
scalar geant_network.node[2].core_layer 	interests[2] 	0
scalar geant_network.node[2].core_layer 	data[2] 	0
scalar geant_network.node[2].content_store 	p_hit[2] 	-nan
scalar geant_network.node[2].content_store 	hits[2] 	0
scalar geant_network.node[2].content_store 	misses[2] 	0
scalar geant_network.node[2].content_store 	decision_yes[2] 	0
scalar geant_network.node[2].content_store 	decision_no[2] 	0
scalar geant_network.node[2].content_store 	decision_ratio[2] 	0
scalar geant_network.node[3].core_layer 	interests[3] 	922
scalar geant_network.node[3].core_layer 	data[3] 	863
scalar geant_network.node[3].content_store 	p_hit[3] 	0.063991323210412
scalar geant_network.node[3].content_store 	hits[3] 	59
scalar geant_network.node[3].content_store 	misses[3] 	863
scalar geant_network.node[3].content_store 	decision_yes[3] 	95
scalar geant_network.node[3].content_store 	decision_no[3] 	768
scalar geant_network.node[3].content_store 	decision_ratio[3] 	0.11008111239861
scalar geant_network.node[4].core_layer 	interests[4] 	0
scalar geant_network.node[4].core_layer 	data[4] 	0
scalar geant_network.node[4].content_store 	p_hit[4] 	-nan
scalar geant_network.node[4].content_store 	hits[4] 	0
scalar geant_network.node[4].content_store 	misses[4] 	0
scalar geant_network.node[4].content_store 	decision_yes[4] 	0
scalar geant_network.node[4].content_store 	decision_no[4] 	0
scalar geant_network.node[4].content_store 	decision_ratio[4] 	0
scalar geant_network.node[5].core_layer 	interests[5] 	863
scalar geant_network.node[5].core_layer 	repo_load[5] 	830
scalar geant_network.node[5].core_layer 	data[5] 	0
scalar geant_network.node[5].content_store 	p_hit[5] 	0.038238702201622
scalar geant_network.node[5].content_store 	hits[5] 	33
scalar geant_network.node[5].content_store 	misses[5] 	830
scalar geant_network.node[5].content_store 	decision_yes[5] 	61
scalar geant_network.node[5].content_store 	decision_no[5] 	769
scalar geant_network.node[5].content_store 	decision_ratio[5] 	0.073493975903614
scalar geant_network.node[6].core_layer 	interests[6] 	0
scalar geant_network.node[6].core_layer 	data[6] 	0
scalar geant_network.node[6].content_store 	p_hit[6] 	-nan
scalar geant_network.node[6].content_store 	hits[6] 	0
scalar geant_network.node[6].content_store 	misses[6] 	0
scalar geant_network.node[6].content_store 	decision_yes[6] 	0
scalar geant_network.node[6].content_store 	decision_no[6] 	0
scalar geant_network.node[6].content_store 	decision_ratio[6] 	0
scalar geant_network.node[7].core_layer 	interests[7] 	0
scalar geant_network.node[7].core_layer 	data[7] 	0
scalar geant_network.node[7].content_store 	p_hit[7] 	-nan
scalar geant_network.node[7].content_store 	hits[7] 	0
scalar geant_network.node[7].content_store 	misses[7] 	0
scalar geant_network.node[7].content_store 	decision_yes[7] 	0
scalar geant_network.node[7].content_store 	decision_no[7] 	0
scalar geant_network.node[7].content_store 	decision_ratio[7] 	0
scalar geant_network.node[8].core_layer 	interests[8] 	0
scalar geant_network.node[8].core_layer 	data[8] 	0
scalar geant_network.node[8].content_store 	p_hit[8] 	-nan
scalar geant_network.node[8].content_store 	hits[8] 	0
scalar geant_network.node[8].content_store 	misses[8] 	0
scalar geant_network.node[8].content_store 	decision_yes[8] 	0
scalar geant_network.node[8].content_store 	decision_no[8] 	0
scalar geant_network.node[8].content_store 	decision_ratio[8] 	0
scalar geant_network.node[9].core_layer 	interests[9] 	0
scalar geant_network.node[9].core_layer 	data[9] 	0
scalar geant_network.node[9].content_store 	p_hit[9] 	-nan
scalar geant_network.node[9].content_store 	hits[9] 	0
scalar geant_network.node[9].content_store 	misses[9] 	0
scalar geant_network.node[9].content_store 	decision_yes[9] 	0
scalar geant_network.node[9].content_store 	decision_no[9] 	0
scalar geant_network.node[9].content_store 	decision_ratio[9] 	0
scalar geant_network.node[10].core_layer 	interests[10] 	0
scalar geant_network.node[10].core_layer 	data[10] 	0
scalar geant_network.node[10].content_store 	p_hit[10] 	-nan
scalar geant_network.node[10].content_store 	hits[10] 	0
scalar geant_network.node[10].content_store 	misses[10] 	0
scalar geant_network.node[10].content_store 	decision_yes[10] 	0
scalar geant_network.node[10].content_store 	decision_no[10] 	0
scalar geant_network.node[10].content_store 	decision_ratio[10] 	0
scalar geant_network.node[11].core_layer 	interests[11] 	1864
scalar geant_network.node[11].core_layer 	data[11] 	990
scalar geant_network.node[11].content_store 	p_hit[11] 	0.46888412017167
scalar geant_network.node[11].content_store 	hits[11] 	874
scalar geant_network.node[11].content_store 	misses[11] 	990
scalar geant_network.node[11].content_store 	decision_yes[11] 	101
scalar geant_network.node[11].content_store 	decision_no[11] 	889
scalar geant_network.node[11].content_store 	decision_ratio[11] 	0.1020202020202
scalar geant_network.node[12].core_layer 	interests[12] 	990
scalar geant_network.node[12].core_layer 	data[12] 	922
scalar geant_network.node[12].content_store 	p_hit[12] 	0.068686868686869
scalar geant_network.node[12].content_store 	hits[12] 	68
scalar geant_network.node[12].content_store 	misses[12] 	922
scalar geant_network.node[12].content_store 	decision_yes[12] 	104
scalar geant_network.node[12].content_store 	decision_no[12] 	818
scalar geant_network.node[12].content_store 	decision_ratio[12] 	0.11279826464208
scalar geant_network.node[13].core_layer 	interests[13] 	0
scalar geant_network.node[13].core_layer 	data[13] 	0
scalar geant_network.node[13].content_store 	p_hit[13] 	-nan
scalar geant_network.node[13].content_store 	hits[13] 	0
scalar geant_network.node[13].content_store 	misses[13] 	0
scalar geant_network.node[13].content_store 	decision_yes[13] 	0
scalar geant_network.node[13].content_store 	decision_no[13] 	0
scalar geant_network.node[13].content_store 	decision_ratio[13] 	0
scalar geant_network.node[14].core_layer 	interests[14] 	0
scalar geant_network.node[14].core_layer 	data[14] 	0
scalar geant_network.node[14].content_store 	p_hit[14] 	-nan
scalar geant_network.node[14].content_store 	hits[14] 	0
scalar geant_network.node[14].content_store 	misses[14] 	0
scalar geant_network.node[14].content_store 	decision_yes[14] 	0
scalar geant_network.node[14].content_store 	decision_no[14] 	0
scalar geant_network.node[14].content_store 	decision_ratio[14] 	0
scalar geant_network.node[15].core_layer 	interests[15] 	0
scalar geant_network.node[15].core_layer 	data[15] 	0
scalar geant_network.node[15].content_store 	p_hit[15] 	-nan
scalar geant_network.node[15].content_store 	hits[15] 	0
scalar geant_network.node[15].content_store 	misses[15] 	0
scalar geant_network.node[15].content_store 	decision_yes[15] 	0
scalar geant_network.node[15].content_store 	decision_no[15] 	0
scalar geant_network.node[15].content_store 	decision_ratio[15] 	0
scalar geant_network.node[16].core_layer 	interests[16] 	0
scalar geant_network.node[16].core_layer 	data[16] 	0
scalar geant_network.node[16].content_store 	p_hit[16] 	-nan
scalar geant_network.node[16].content_store 	hits[16] 	0
scalar geant_network.node[16].content_store 	misses[16] 	0
scalar geant_network.node[16].content_store 	decision_yes[16] 	0
scalar geant_network.node[16].content_store 	decision_no[16] 	0
scalar geant_network.node[16].content_store 	decision_ratio[16] 	0
scalar geant_network.node[17].core_layer 	interests[17] 	0
scalar geant_network.node[17].core_layer 	data[17] 	0
scalar geant_network.node[17].content_store 	p_hit[17] 	-nan
scalar geant_network.node[17].content_store 	hits[17] 	0
scalar geant_network.node[17].content_store 	misses[17] 	0
scalar geant_network.node[17].content_store 	decision_yes[17] 	0
scalar geant_network.node[17].content_store 	decision_no[17] 	0
scalar geant_network.node[17].content_store 	decision_ratio[17] 	0
scalar geant_network.node[18].core_layer 	interests[18] 	0
scalar geant_network.node[18].core_layer 	data[18] 	0
scalar geant_network.node[18].content_store 	p_hit[18] 	-nan
scalar geant_network.node[18].content_store 	hits[18] 	0
scalar geant_network.node[18].content_store 	misses[18] 	0
scalar geant_network.node[18].content_store 	decision_yes[18] 	0
scalar geant_network.node[18].content_store 	decision_no[18] 	0
scalar geant_network.node[18].content_store 	decision_ratio[18] 	0
scalar geant_network.node[19].core_layer 	interests[19] 	0
scalar geant_network.node[19].core_layer 	data[19] 	0
scalar geant_network.node[19].content_store 	p_hit[19] 	-nan
scalar geant_network.node[19].content_store 	hits[19] 	0
scalar geant_network.node[19].content_store 	misses[19] 	0
scalar geant_network.node[19].content_store 	decision_yes[19] 	0
scalar geant_network.node[19].content_store 	decision_no[19] 	0
scalar geant_network.node[19].content_store 	decision_ratio[19] 	0
scalar geant_network.node[20].core_layer 	interests[20] 	0
scalar geant_network.node[20].core_layer 	data[20] 	0
scalar geant_network.node[20].content_store 	p_hit[20] 	-nan
scalar geant_network.node[20].content_store 	hits[20] 	0
scalar geant_network.node[20].content_store 	misses[20] 	0
scalar geant_network.node[20].content_store 	decision_yes[20] 	0
scalar geant_network.node[20].content_store 	decision_no[20] 	0
scalar geant_network.node[20].content_store 	decision_ratio[20] 	0
scalar geant_network.node[21].core_layer 	interests[21] 	0
scalar geant_network.node[21].core_layer 	data[21] 	0
scalar geant_network.node[21].content_store 	p_hit[21] 	-nan
scalar geant_network.node[21].content_store 	hits[21] 	0
scalar geant_network.node[21].content_store 	misses[21] 	0
scalar geant_network.node[21].content_store 	decision_yes[21] 	0
scalar geant_network.node[21].content_store 	decision_no[21] 	0
scalar geant_network.node[21].content_store 	decision_ratio[21] 	0
scalar geant_network.client[11] 	hdistance[11] 	1.9340128755365
scalar geant_network.client[11] 	downloads[11] 	1864
scalar geant_network.client[11] 	avg_time[11] 	0.005167767783
scalar geant_network.client[11] 	interests_sent[11] 	1864
