version 2
run General-2-20150521-11:52:00-10519
attr D fix0.1
attr F nrr
attr R lru
attr a 1
attr configname General
attr datetime 20150521-11:52:00
attr experiment General
attr inifile omnetpp.ini
attr iterationvars "$net=geant, $rep=0, $a=1, $F=nrr, $ttl=1000, $D=fix0.1, $R=lru"
attr iterationvars2 "$net=geant, $rep=0, $a=1, $F=nrr, $ttl=1000, $D=fix0.1, $R=lru, $repetition=0"
attr measurement "$net=geant, $rep=0, $a=1, $F=nrr, $ttl=1000, $D=fix0.1, $R=lru"
attr net geant
attr network networks.${net=geant}_network
attr processid 10519
attr rep 0
attr repetition 0
attr replication #0
attr resultdir results
attr runnumber 2
attr seedset 0
attr ttl 1000

scalar . 	a 	1
scalar . 	rep 	0
scalar . 	ttl 	1000
scalar geant_network.content_distribution 	repo-0 	5
scalar geant_network.content_distribution 	repo-1 	11
scalar geant_network.content_distribution 	repo-2 	12
scalar geant_network.content_distribution 	repo-3 	8
scalar geant_network.content_distribution 	repo-4 	9
scalar geant_network.content_distribution 	repo-5 	15
scalar geant_network.content_distribution 	repo-6 	0
scalar geant_network.content_distribution 	repo-7 	16
scalar geant_network.content_distribution 	repo-8 	1
scalar geant_network.content_distribution 	repo-9 	7
scalar geant_network.content_distribution 	repo-10 	13
scalar geant_network.content_distribution 	client-0 	6
scalar geant_network.content_distribution 	client-1 	18
scalar geant_network.content_distribution 	client-2 	20
scalar geant_network.content_distribution 	client-3 	5
scalar geant_network.content_distribution 	client-4 	11
scalar geant_network.content_distribution 	client-5 	10
scalar geant_network.content_distribution 	client-6 	14
scalar geant_network.content_distribution 	client-7 	4
scalar geant_network.content_distribution 	client-8 	9
scalar geant_network.content_distribution 	client-9 	17
scalar geant_network.content_distribution 	client-10 	0
scalar geant_network.content_distribution 	repo-0_card 	930
scalar geant_network.content_distribution 	repo-0_price 	0
scalar geant_network.content_distribution 	repo-1_card 	837
scalar geant_network.content_distribution 	repo-1_price 	0
scalar geant_network.content_distribution 	repo-2_card 	907
scalar geant_network.content_distribution 	repo-2_price 	0
scalar geant_network.content_distribution 	repo-3_card 	917
scalar geant_network.content_distribution 	repo-3_price 	0
scalar geant_network.content_distribution 	repo-4_card 	886
scalar geant_network.content_distribution 	repo-4_price 	0
scalar geant_network.content_distribution 	repo-5_card 	971
scalar geant_network.content_distribution 	repo-5_price 	0
scalar geant_network.content_distribution 	repo-6_card 	916
scalar geant_network.content_distribution 	repo-6_price 	0
scalar geant_network.content_distribution 	repo-7_card 	937
scalar geant_network.content_distribution 	repo-7_price 	0
scalar geant_network.content_distribution 	repo-8_card 	889
scalar geant_network.content_distribution 	repo-8_price 	0
scalar geant_network.content_distribution 	repo-9_card 	894
scalar geant_network.content_distribution 	repo-9_price 	0
scalar geant_network.content_distribution 	repo-10_card 	916
scalar geant_network.content_distribution 	repo-10_price 	0
scalar geant_network.statistics 	stabilization_time 	36120
scalar geant_network.statistics 	p_hit 	0.30862045235583
scalar geant_network.statistics 	interests 	1981.5454545455
scalar geant_network.statistics 	data 	1089.3181818182
scalar geant_network.statistics 	hdistance 	1.5350794829781
scalar geant_network.statistics 	avg_time 	0.011209223616
scalar geant_network.statistics 	downloads 	19629
scalar geant_network.statistics 	total_cost 	0
scalar geant_network.statistics 	total_replicas 	10000
scalar geant_network.statistics 	inner_hit 	0.68541443782159
scalar geant_network.statistics 	interests_sent 	19629
scalar geant_network.node[0].core_layer 	interests[0] 	2453
scalar geant_network.node[0].core_layer 	repo_load[0] 	589
scalar geant_network.node[0].core_layer 	data[0] 	1009
scalar geant_network.node[0].core_layer 	repo_int[0] 	6175
scalar geant_network.node[0].content_store 	p_hit[0] 	0.34855279249898
scalar geant_network.node[0].content_store 	hits[0] 	855
scalar geant_network.node[0].content_store 	misses[0] 	1598
scalar geant_network.node[0].content_store 	decision_yes[0] 	161
scalar geant_network.node[0].content_store 	decision_no[0] 	1437
scalar geant_network.node[0].content_store 	decision_ratio[0] 	0.10075093867334
scalar geant_network.node[1].core_layer 	interests[1] 	1701
scalar geant_network.node[1].core_layer 	repo_load[1] 	547
scalar geant_network.node[1].core_layer 	data[1] 	903
scalar geant_network.node[1].content_store 	p_hit[1] 	0.14756025867137
scalar geant_network.node[1].content_store 	hits[1] 	251
scalar geant_network.node[1].content_store 	misses[1] 	1450
scalar geant_network.node[1].content_store 	decision_yes[1] 	148
scalar geant_network.node[1].content_store 	decision_no[1] 	1302
scalar geant_network.node[1].content_store 	decision_ratio[1] 	0.10206896551724
scalar geant_network.node[2].core_layer 	interests[2] 	0
scalar geant_network.node[2].core_layer 	data[2] 	0
scalar geant_network.node[2].content_store 	p_hit[2] 	-nan
scalar geant_network.node[2].content_store 	hits[2] 	0
scalar geant_network.node[2].content_store 	misses[2] 	0
scalar geant_network.node[2].content_store 	decision_yes[2] 	0
scalar geant_network.node[2].content_store 	decision_no[2] 	0
scalar geant_network.node[2].content_store 	decision_ratio[2] 	0
scalar geant_network.node[3].core_layer 	interests[3] 	2462
scalar geant_network.node[3].core_layer 	data[3] 	2104
scalar geant_network.node[3].content_store 	p_hit[3] 	0.14541023558083
scalar geant_network.node[3].content_store 	hits[3] 	358
scalar geant_network.node[3].content_store 	misses[3] 	2104
scalar geant_network.node[3].content_store 	decision_yes[3] 	199
scalar geant_network.node[3].content_store 	decision_no[3] 	1905
scalar geant_network.node[3].content_store 	decision_ratio[3] 	0.09458174904943
scalar geant_network.node[4].core_layer 	interests[4] 	3272
scalar geant_network.node[4].core_layer 	data[4] 	2369
scalar geant_network.node[4].content_store 	p_hit[4] 	0.27597799511002
scalar geant_network.node[4].content_store 	hits[4] 	903
scalar geant_network.node[4].content_store 	misses[4] 	2369
scalar geant_network.node[4].content_store 	decision_yes[4] 	242
scalar geant_network.node[4].content_store 	decision_no[4] 	2127
scalar geant_network.node[4].content_store 	decision_ratio[4] 	0.1021528070916
scalar geant_network.node[5].core_layer 	interests[5] 	3181
scalar geant_network.node[5].core_layer 	repo_load[5] 	682
scalar geant_network.node[5].core_layer 	data[5] 	1471
scalar geant_network.node[5].content_store 	p_hit[5] 	0.3231688148381
scalar geant_network.node[5].content_store 	hits[5] 	1028
scalar geant_network.node[5].content_store 	misses[5] 	2153
scalar geant_network.node[5].content_store 	decision_yes[5] 	225
scalar geant_network.node[5].content_store 	decision_no[5] 	1928
scalar geant_network.node[5].content_store 	decision_ratio[5] 	0.10450534138412
scalar geant_network.node[6].core_layer 	interests[6] 	2126
scalar geant_network.node[6].core_layer 	data[6] 	1132
scalar geant_network.node[6].content_store 	p_hit[6] 	0.46754468485419
scalar geant_network.node[6].content_store 	hits[6] 	994
scalar geant_network.node[6].content_store 	misses[6] 	1132
scalar geant_network.node[6].content_store 	decision_yes[6] 	100
scalar geant_network.node[6].content_store 	decision_no[6] 	1032
scalar geant_network.node[6].content_store 	decision_ratio[6] 	0.088339222614841
scalar geant_network.node[7].core_layer 	interests[7] 	1563
scalar geant_network.node[7].core_layer 	repo_load[7] 	505
scalar geant_network.node[7].core_layer 	data[7] 	836
scalar geant_network.node[7].content_store 	p_hit[7] 	0.14203454894434
scalar geant_network.node[7].content_store 	hits[7] 	222
scalar geant_network.node[7].content_store 	misses[7] 	1341
scalar geant_network.node[7].content_store 	decision_yes[7] 	133
scalar geant_network.node[7].content_store 	decision_no[7] 	1208
scalar geant_network.node[7].content_store 	decision_ratio[7] 	0.099179716629381
scalar geant_network.node[8].core_layer 	interests[8] 	1029
scalar geant_network.node[8].core_layer 	repo_load[8] 	508
scalar geant_network.node[8].core_layer 	data[8] 	347
scalar geant_network.node[8].content_store 	p_hit[8] 	0.16909620991254
scalar geant_network.node[8].content_store 	hits[8] 	174
scalar geant_network.node[8].content_store 	misses[8] 	855
scalar geant_network.node[8].content_store 	decision_yes[8] 	75
scalar geant_network.node[8].content_store 	decision_no[8] 	780
scalar geant_network.node[8].content_store 	decision_ratio[8] 	0.087719298245614
scalar geant_network.node[9].core_layer 	interests[9] 	3254
scalar geant_network.node[9].core_layer 	repo_load[9] 	603
scalar geant_network.node[9].core_layer 	data[9] 	1770
scalar geant_network.node[9].content_store 	p_hit[9] 	0.27074370006146
scalar geant_network.node[9].content_store 	hits[9] 	881
scalar geant_network.node[9].content_store 	misses[9] 	2373
scalar geant_network.node[9].content_store 	decision_yes[9] 	227
scalar geant_network.node[9].content_store 	decision_no[9] 	2146
scalar geant_network.node[9].content_store 	decision_ratio[9] 	0.095659502739149
scalar geant_network.node[10].core_layer 	interests[10] 	2271
scalar geant_network.node[10].core_layer 	data[10] 	1170
scalar geant_network.node[10].content_store 	p_hit[10] 	0.48480845442536
scalar geant_network.node[10].content_store 	hits[10] 	1101
scalar geant_network.node[10].content_store 	misses[10] 	1170
scalar geant_network.node[10].content_store 	decision_yes[10] 	113
scalar geant_network.node[10].content_store 	decision_no[10] 	1057
scalar geant_network.node[10].content_store 	decision_ratio[10] 	0.096581196581197
scalar geant_network.node[11].core_layer 	interests[11] 	2249
scalar geant_network.node[11].core_layer 	repo_load[11] 	519
scalar geant_network.node[11].core_layer 	data[11] 	915
scalar geant_network.node[11].content_store 	p_hit[11] 	0.36238328145843
scalar geant_network.node[11].content_store 	hits[11] 	815
scalar geant_network.node[11].content_store 	misses[11] 	1434
scalar geant_network.node[11].content_store 	decision_yes[11] 	164
scalar geant_network.node[11].content_store 	decision_no[11] 	1270
scalar geant_network.node[11].content_store 	decision_ratio[11] 	0.11436541143654
scalar geant_network.node[12].core_layer 	interests[12] 	3053
scalar geant_network.node[12].core_layer 	repo_load[12] 	635
scalar geant_network.node[12].core_layer 	data[12] 	2187
scalar geant_network.node[12].content_store 	p_hit[12] 	0.075663282017688
scalar geant_network.node[12].content_store 	hits[12] 	231
scalar geant_network.node[12].content_store 	misses[12] 	2822
scalar geant_network.node[12].content_store 	decision_yes[12] 	277
scalar geant_network.node[12].content_store 	decision_no[12] 	2545
scalar geant_network.node[12].content_store 	decision_ratio[12] 	0.098157335223246
scalar geant_network.node[13].core_layer 	interests[13] 	1116
scalar geant_network.node[13].core_layer 	repo_load[13] 	525
scalar geant_network.node[13].core_layer 	data[13] 	376
scalar geant_network.node[13].content_store 	p_hit[13] 	0.1926523297491
scalar geant_network.node[13].content_store 	hits[13] 	215
scalar geant_network.node[13].content_store 	misses[13] 	901
scalar geant_network.node[13].content_store 	decision_yes[13] 	84
scalar geant_network.node[13].content_store 	decision_no[13] 	817
scalar geant_network.node[13].content_store 	decision_ratio[13] 	0.09322974472808
scalar geant_network.node[14].core_layer 	interests[14] 	3273
scalar geant_network.node[14].core_layer 	data[14] 	2196
scalar geant_network.node[14].content_store 	p_hit[14] 	0.32905591200733
scalar geant_network.node[14].content_store 	hits[14] 	1077
scalar geant_network.node[14].content_store 	misses[14] 	2196
scalar geant_network.node[14].content_store 	decision_yes[14] 	220
scalar geant_network.node[14].content_store 	decision_no[14] 	1976
scalar geant_network.node[14].content_store 	decision_ratio[14] 	0.10018214936248
scalar geant_network.node[15].core_layer 	interests[15] 	1676
scalar geant_network.node[15].core_layer 	repo_load[15] 	615
scalar geant_network.node[15].core_layer 	data[15] 	685
scalar geant_network.node[15].content_store 	p_hit[15] 	0.22434367541766
scalar geant_network.node[15].content_store 	hits[15] 	376
scalar geant_network.node[15].content_store 	misses[15] 	1300
scalar geant_network.node[15].content_store 	decision_yes[15] 	139
scalar geant_network.node[15].content_store 	decision_no[15] 	1161
scalar geant_network.node[15].content_store 	decision_ratio[15] 	0.10692307692308
scalar geant_network.node[16].core_layer 	interests[16] 	608
scalar geant_network.node[16].core_layer 	repo_load[16] 	447
scalar geant_network.node[16].core_layer 	data[16] 	0
scalar geant_network.node[16].content_store 	p_hit[16] 	0.26480263157895
scalar geant_network.node[16].content_store 	hits[16] 	161
scalar geant_network.node[16].content_store 	misses[16] 	447
scalar geant_network.node[16].content_store 	decision_yes[16] 	32
scalar geant_network.node[16].content_store 	decision_no[16] 	415
scalar geant_network.node[16].content_store 	decision_ratio[16] 	0.07158836689038
scalar geant_network.node[17].core_layer 	interests[17] 	2162
scalar geant_network.node[17].core_layer 	data[17] 	1119
scalar geant_network.node[17].content_store 	p_hit[17] 	0.48242368177613
scalar geant_network.node[17].content_store 	hits[17] 	1043
scalar geant_network.node[17].content_store 	misses[17] 	1119
scalar geant_network.node[17].content_store 	decision_yes[17] 	112
scalar geant_network.node[17].content_store 	decision_no[17] 	1007
scalar geant_network.node[17].content_store 	decision_ratio[17] 	0.10008936550492
scalar geant_network.node[18].core_layer 	interests[18] 	3015
scalar geant_network.node[18].core_layer 	data[18] 	1748
scalar geant_network.node[18].content_store 	p_hit[18] 	0.42023217247098
scalar geant_network.node[18].content_store 	hits[18] 	1267
scalar geant_network.node[18].content_store 	misses[18] 	1748
scalar geant_network.node[18].content_store 	decision_yes[18] 	195
scalar geant_network.node[18].content_store 	decision_no[18] 	1553
scalar geant_network.node[18].content_store 	decision_ratio[18] 	0.11155606407323
scalar geant_network.node[19].core_layer 	interests[19] 	0
scalar geant_network.node[19].core_layer 	data[19] 	0
scalar geant_network.node[19].content_store 	p_hit[19] 	-nan
scalar geant_network.node[19].content_store 	hits[19] 	0
scalar geant_network.node[19].content_store 	misses[19] 	0
scalar geant_network.node[19].content_store 	decision_yes[19] 	0
scalar geant_network.node[19].content_store 	decision_no[19] 	0
scalar geant_network.node[19].content_store 	decision_ratio[19] 	0
scalar geant_network.node[20].core_layer 	interests[20] 	1996
scalar geant_network.node[20].core_layer 	data[20] 	1028
scalar geant_network.node[20].content_store 	p_hit[20] 	0.48496993987976
scalar geant_network.node[20].content_store 	hits[20] 	968
scalar geant_network.node[20].content_store 	misses[20] 	1028
scalar geant_network.node[20].content_store 	decision_yes[20] 	96
scalar geant_network.node[20].content_store 	decision_no[20] 	932
scalar geant_network.node[20].content_store 	decision_ratio[20] 	0.093385214007782
scalar geant_network.node[21].core_layer 	interests[21] 	1134
scalar geant_network.node[21].core_layer 	data[21] 	600
scalar geant_network.node[21].content_store 	p_hit[21] 	0.47089947089947
scalar geant_network.node[21].content_store 	hits[21] 	534
scalar geant_network.node[21].content_store 	misses[21] 	600
scalar geant_network.node[21].content_store 	decision_yes[21] 	59
scalar geant_network.node[21].content_store 	decision_no[21] 	541
scalar geant_network.node[21].content_store 	decision_ratio[21] 	0.098333333333333
scalar geant_network.client[0] 	hdistance[0] 	1.5902105862265
scalar geant_network.client[0] 	downloads[0] 	1757
scalar geant_network.client[0] 	avg_time[0] 	0.028370403654
scalar geant_network.client[0] 	interests_sent[0] 	1757
scalar geant_network.client[4] 	hdistance[4] 	1.3731513083049
scalar geant_network.client[4] 	downloads[4] 	1758
scalar geant_network.client[4] 	avg_time[4] 	0.006260386357
scalar geant_network.client[4] 	interests_sent[4] 	1758
scalar geant_network.client[5] 	hdistance[5] 	1.3841839596186
scalar geant_network.client[5] 	downloads[5] 	1783
scalar geant_network.client[5] 	avg_time[5] 	0.008735344478
scalar geant_network.client[5] 	interests_sent[5] 	1783
scalar geant_network.client[6] 	hdistance[6] 	1.6554760594386
scalar geant_network.client[6] 	downloads[6] 	1817
scalar geant_network.client[6] 	avg_time[6] 	0.0092142318
scalar geant_network.client[6] 	interests_sent[6] 	1817
scalar geant_network.client[9] 	hdistance[9] 	1.4560530679934
scalar geant_network.client[9] 	downloads[9] 	1809
scalar geant_network.client[9] 	avg_time[9] 	0.008940861897
scalar geant_network.client[9] 	interests_sent[9] 	1809
scalar geant_network.client[10] 	hdistance[10] 	1.7687569988802
scalar geant_network.client[10] 	downloads[10] 	1786
scalar geant_network.client[10] 	avg_time[10] 	0.009061668085
scalar geant_network.client[10] 	interests_sent[10] 	1786
scalar geant_network.client[11] 	hdistance[11] 	1.6306884480747
scalar geant_network.client[11] 	downloads[11] 	1714
scalar geant_network.client[11] 	avg_time[11] 	0.009499206109
scalar geant_network.client[11] 	interests_sent[11] 	1714
scalar geant_network.client[14] 	hdistance[14] 	1.2833333333333
scalar geant_network.client[14] 	downloads[14] 	1800
scalar geant_network.client[14] 	avg_time[14] 	0.014144499531
scalar geant_network.client[14] 	interests_sent[14] 	1800
scalar geant_network.client[17] 	hdistance[17] 	1.4178770949721
scalar geant_network.client[17] 	downloads[17] 	1790
scalar geant_network.client[17] 	avg_time[17] 	0.009748100108
scalar geant_network.client[17] 	interests_sent[17] 	1790
scalar geant_network.client[18] 	hdistance[18] 	1.4580536912752
scalar geant_network.client[18] 	downloads[18] 	1788
scalar geant_network.client[18] 	avg_time[18] 	0.007858668443
scalar geant_network.client[18] 	interests_sent[18] 	1788
scalar geant_network.client[20] 	hdistance[20] 	1.8680897646415
scalar geant_network.client[20] 	downloads[20] 	1827
scalar geant_network.client[20] 	avg_time[20] 	0.011468089314
scalar geant_network.client[20] 	interests_sent[20] 	1827
