version 2
run General-0-20140512-15:21:52-4506
attr D never
attr F spr
attr R lru
attr a 0
attr configname General
attr csize 10
attr ctlg 100
attr datetime 20140512-15:21:52
attr experiment General
attr inifile omnetpp.ini
attr iterationvars "$net=abilene_cost, $rep=1, $priceratiovalue=1, $weights=0.333_0.333_0.334, $a=0, $ctlg=100, $F=spr, $ttl=1000, $D=never, $xi=1, $R=lru, $csize=10"
attr iterationvars2 "$net=abilene_cost, $rep=1, $priceratiovalue=1, $weights=0.333_0.333_0.334, $a=0, $ctlg=100, $F=spr, $ttl=1000, $D=never, $xi=1, $R=lru, $csize=10, $repetition=0"
attr measurement "$net=abilene_cost, $rep=1, $priceratiovalue=1, $weights=0.333_0.333_0.334, $a=0, $ctlg=100, $F=spr, $ttl=1000, $D=never, $xi=1, $R=lru, $csize=10"
attr net abilene_cost
attr network networks.${net=abilene_cost}_network
attr priceratiovalue 1
attr processid 4506
attr rep 1
attr repetition 0
attr replication #0
attr resultdir results
attr runnumber 0
attr seedset 1
attr ttl 1000
attr weights 0.333_0.333_0.334
attr xi 1

scalar . 	a 	0
scalar . 	csize 	10
scalar . 	ctlg 	100
scalar . 	priceratiovalue 	1
scalar . 	rep 	1
scalar . 	ttl 	1000
scalar . 	xi 	1
scalar abilene_cost_network.content_distribution 	repo-0 	11
scalar abilene_cost_network.content_distribution 	repo-1 	12
scalar abilene_cost_network.content_distribution 	repo-2 	13
scalar abilene_cost_network.content_distribution 	client-0 	3
scalar abilene_cost_network.content_distribution 	client-1 	7
scalar abilene_cost_network.content_distribution 	client-2 	10
scalar abilene_cost_network.content_distribution 	repo-0_card 	35
scalar abilene_cost_network.content_distribution 	repo-1_card 	37
scalar abilene_cost_network.content_distribution 	repo-2_card 	28
scalar abilene_cost_network.statistics 	p_hit 	0
scalar abilene_cost_network.statistics 	interests 	9745.2857142857
scalar abilene_cost_network.statistics 	data 	7627.7142857143
scalar abilene_cost_network.statistics 	hdistance 	4.6021945096282
scalar abilene_cost_network.statistics 	avg_time 	0
scalar abilene_cost_network.statistics 	downloads 	29646
scalar abilene_cost_network.statistics 	total_cost 	19160
scalar abilene_cost_network.statistics 	total_replicas 	100
scalar abilene_cost_network.statistics 	interests_sent 	29646
scalar abilene_cost_network.node[0].core_layer 	interests[0] 	10486
scalar abilene_cost_network.node[0].core_layer 	data[0] 	10486
scalar abilene_cost_network.node[0].core_layer 	repo_int[0] 	29646
scalar abilene_cost_network.node[0].content_store 	p_hit[0] 	0
scalar abilene_cost_network.node[0].content_store 	hits[0] 	0
scalar abilene_cost_network.node[0].content_store 	misses[0] 	10486
scalar abilene_cost_network.node[0].content_store 	decision_yes[0] 	0
scalar abilene_cost_network.node[0].content_store 	decision_no[0] 	10486
scalar abilene_cost_network.node[0].content_store 	decision_ratio[0] 	0
scalar abilene_cost_network.node[1].core_layer 	interests[1] 	7114
scalar abilene_cost_network.node[1].core_layer 	data[1] 	7114
scalar abilene_cost_network.node[1].content_store 	p_hit[1] 	0
scalar abilene_cost_network.node[1].content_store 	hits[1] 	0
scalar abilene_cost_network.node[1].content_store 	misses[1] 	7114
scalar abilene_cost_network.node[1].content_store 	decision_yes[1] 	0
scalar abilene_cost_network.node[1].content_store 	decision_no[1] 	7114
scalar abilene_cost_network.node[1].content_store 	decision_ratio[1] 	0
scalar abilene_cost_network.node[2].core_layer 	interests[2] 	7114
scalar abilene_cost_network.node[2].core_layer 	data[2] 	7114
scalar abilene_cost_network.node[2].content_store 	p_hit[2] 	0
scalar abilene_cost_network.node[2].content_store 	hits[2] 	0
scalar abilene_cost_network.node[2].content_store 	misses[2] 	7114
scalar abilene_cost_network.node[2].content_store 	decision_yes[2] 	0
scalar abilene_cost_network.node[2].content_store 	decision_no[2] 	7114
scalar abilene_cost_network.node[2].content_store 	decision_ratio[2] 	0
scalar abilene_cost_network.node[3].core_layer 	interests[3] 	13452
scalar abilene_cost_network.node[3].core_layer 	data[3] 	13452
scalar abilene_cost_network.node[3].content_store 	p_hit[3] 	0
scalar abilene_cost_network.node[3].content_store 	hits[3] 	0
scalar abilene_cost_network.node[3].content_store 	misses[3] 	13452
scalar abilene_cost_network.node[3].content_store 	decision_yes[3] 	0
scalar abilene_cost_network.node[3].content_store 	decision_no[3] 	13452
scalar abilene_cost_network.node[3].content_store 	decision_ratio[3] 	0
scalar abilene_cost_network.node[4].core_layer 	interests[4] 	7266
scalar abilene_cost_network.node[4].core_layer 	data[4] 	7266
scalar abilene_cost_network.node[4].content_store 	p_hit[4] 	0
scalar abilene_cost_network.node[4].content_store 	hits[4] 	0
scalar abilene_cost_network.node[4].content_store 	misses[4] 	7266
scalar abilene_cost_network.node[4].content_store 	decision_yes[4] 	0
scalar abilene_cost_network.node[4].content_store 	decision_no[4] 	7266
scalar abilene_cost_network.node[4].content_store 	decision_ratio[4] 	0
scalar abilene_cost_network.node[5].core_layer 	interests[5] 	10936
scalar abilene_cost_network.node[5].core_layer 	data[5] 	10936
scalar abilene_cost_network.node[5].content_store 	p_hit[5] 	0
scalar abilene_cost_network.node[5].content_store 	hits[5] 	0
scalar abilene_cost_network.node[5].content_store 	misses[5] 	10936
scalar abilene_cost_network.node[5].content_store 	decision_yes[5] 	0
scalar abilene_cost_network.node[5].content_store 	decision_no[5] 	10936
scalar abilene_cost_network.node[5].content_store 	decision_ratio[5] 	0
scalar abilene_cost_network.node[6].core_layer 	interests[6] 	3670
scalar abilene_cost_network.node[6].core_layer 	data[6] 	3670
scalar abilene_cost_network.node[6].content_store 	p_hit[6] 	0
scalar abilene_cost_network.node[6].content_store 	hits[6] 	0
scalar abilene_cost_network.node[6].content_store 	misses[6] 	3670
scalar abilene_cost_network.node[6].content_store 	decision_yes[6] 	0
scalar abilene_cost_network.node[6].content_store 	decision_no[6] 	3670
scalar abilene_cost_network.node[6].content_store 	decision_ratio[6] 	0
scalar abilene_cost_network.node[7].core_layer 	interests[7] 	12632
scalar abilene_cost_network.node[7].core_layer 	data[7] 	12632
scalar abilene_cost_network.node[7].content_store 	p_hit[7] 	0
scalar abilene_cost_network.node[7].content_store 	hits[7] 	0
scalar abilene_cost_network.node[7].content_store 	misses[7] 	12632
scalar abilene_cost_network.node[7].content_store 	decision_yes[7] 	0
scalar abilene_cost_network.node[7].content_store 	decision_no[7] 	12632
scalar abilene_cost_network.node[7].content_store 	decision_ratio[7] 	0
scalar abilene_cost_network.node[8].core_layer 	interests[8] 	8962
scalar abilene_cost_network.node[8].core_layer 	data[8] 	8962
scalar abilene_cost_network.node[8].content_store 	p_hit[8] 	0
scalar abilene_cost_network.node[8].content_store 	hits[8] 	0
scalar abilene_cost_network.node[8].content_store 	misses[8] 	8962
scalar abilene_cost_network.node[8].content_store 	decision_yes[8] 	0
scalar abilene_cost_network.node[8].content_store 	decision_no[8] 	8962
scalar abilene_cost_network.node[8].content_store 	decision_ratio[8] 	0
scalar abilene_cost_network.node[9].core_layer 	interests[9] 	11732
scalar abilene_cost_network.node[9].core_layer 	data[9] 	11732
scalar abilene_cost_network.node[9].content_store 	p_hit[9] 	0
scalar abilene_cost_network.node[9].content_store 	hits[9] 	0
scalar abilene_cost_network.node[9].content_store 	misses[9] 	11732
scalar abilene_cost_network.node[9].content_store 	decision_yes[9] 	0
scalar abilene_cost_network.node[9].content_store 	decision_no[9] 	11732
scalar abilene_cost_network.node[9].content_store 	decision_ratio[9] 	0
scalar abilene_cost_network.node[10].core_layer 	interests[10] 	13424
scalar abilene_cost_network.node[10].core_layer 	data[10] 	13424
scalar abilene_cost_network.node[10].content_store 	p_hit[10] 	0
scalar abilene_cost_network.node[10].content_store 	hits[10] 	0
scalar abilene_cost_network.node[10].content_store 	misses[10] 	13424
scalar abilene_cost_network.node[10].content_store 	decision_yes[10] 	0
scalar abilene_cost_network.node[10].content_store 	decision_no[10] 	13424
scalar abilene_cost_network.node[10].content_store 	decision_ratio[10] 	0
scalar abilene_cost_network.node[11].core_layer 	interests[11] 	10486
scalar abilene_cost_network.node[11].core_layer 	repo_load[11] 	10486
scalar abilene_cost_network.node[11].core_layer 	data[11] 	0
scalar abilene_cost_network.node[11].content_store 	p_hit[11] 	0
scalar abilene_cost_network.node[11].content_store 	hits[11] 	0
scalar abilene_cost_network.node[11].content_store 	misses[11] 	10486
scalar abilene_cost_network.node[11].content_store 	decision_yes[11] 	0
scalar abilene_cost_network.node[11].content_store 	decision_no[11] 	10486
scalar abilene_cost_network.node[11].content_store 	decision_ratio[11] 	0
scalar abilene_cost_network.node[12].core_layer 	interests[12] 	10936
scalar abilene_cost_network.node[12].core_layer 	repo_load[12] 	10936
scalar abilene_cost_network.node[12].core_layer 	data[12] 	0
scalar abilene_cost_network.node[12].content_store 	p_hit[12] 	0
scalar abilene_cost_network.node[12].content_store 	hits[12] 	0
scalar abilene_cost_network.node[12].content_store 	misses[12] 	10936
scalar abilene_cost_network.node[12].content_store 	decision_yes[12] 	0
scalar abilene_cost_network.node[12].content_store 	decision_no[12] 	10936
scalar abilene_cost_network.node[12].content_store 	decision_ratio[12] 	0
scalar abilene_cost_network.node[13].core_layer 	interests[13] 	8224
scalar abilene_cost_network.node[13].core_layer 	repo_load[13] 	8224
scalar abilene_cost_network.node[13].core_layer 	data[13] 	0
scalar abilene_cost_network.node[13].content_store 	p_hit[13] 	0
scalar abilene_cost_network.node[13].content_store 	hits[13] 	0
scalar abilene_cost_network.node[13].content_store 	misses[13] 	8224
scalar abilene_cost_network.node[13].content_store 	decision_yes[13] 	0
scalar abilene_cost_network.node[13].content_store 	decision_no[13] 	8224
scalar abilene_cost_network.node[13].content_store 	decision_ratio[13] 	0
scalar abilene_cost_network.client[3] 	hdistance[3] 	4.6305167668943
scalar abilene_cost_network.client[3] 	downloads[3] 	9811
scalar abilene_cost_network.client[3] 	avg_time[3] 	0
scalar abilene_cost_network.client[3] 	interests_sent[3] 	9811
scalar abilene_cost_network.client[7] 	hdistance[7] 	4.7073293678798
scalar abilene_cost_network.client[7] 	downloads[7] 	9919
scalar abilene_cost_network.client[7] 	avg_time[7] 	0
scalar abilene_cost_network.client[7] 	interests_sent[7] 	9919
scalar abilene_cost_network.client[10] 	hdistance[10] 	4.4687373941105
scalar abilene_cost_network.client[10] 	downloads[10] 	9916
scalar abilene_cost_network.client[10] 	avg_time[10] 	0
scalar abilene_cost_network.client[10] 	interests_sent[10] 	9916
