version 2
run General-1299-20140425-01:26:20-12503
attr D fix0.0001
attr F nrr
attr R lru
attr a 1.2
attr configname General
attr csize 9
attr ctlg 10^3
attr datetime 20140425-01:26:20
attr experiment General
attr inifile omnetpp.ini
attr iterationvars "$net=one_cache_scenario, $rep=4, $priceratiovalue=1, $a=1.2, $ctlg=10^3, $F=nrr, $ttl=1000, $D=fix0.0001, $R=lru, $csize=9"
attr iterationvars2 "$net=one_cache_scenario, $rep=4, $priceratiovalue=1, $a=1.2, $ctlg=10^3, $F=nrr, $ttl=1000, $D=fix0.0001, $R=lru, $csize=9, $repetition=0"
attr measurement "$net=one_cache_scenario, $rep=4, $priceratiovalue=1, $a=1.2, $ctlg=10^3, $F=nrr, $ttl=1000, $D=fix0.0001, $R=lru, $csize=9"
attr net one_cache_scenario
attr network networks.${net=one_cache_scenario}_network
attr priceratiovalue 1
attr processid 12503
attr rep 4
attr repetition 0
attr replication #0
attr resultdir results
attr runnumber 1299
attr seedset 4
attr ttl 1000

scalar . 	a 	1.2
scalar . 	csize 	9
scalar . 	priceratiovalue 	1
scalar . 	rep 	4
scalar . 	ttl 	1000
scalar one_cache_scenario_network.content_distribution 	repo-0 	3
scalar one_cache_scenario_network.content_distribution 	repo-1 	4
scalar one_cache_scenario_network.content_distribution 	client-0 	0
scalar one_cache_scenario_network.content_distribution 	repo-0_card 	485
scalar one_cache_scenario_network.content_distribution 	repo-1_card 	515
scalar one_cache_scenario_network.statistics 	p_hit 	0.24482333233061
scalar one_cache_scenario_network.statistics 	interests 	72469.4
scalar one_cache_scenario_network.statistics 	data 	36484.8
scalar one_cache_scenario_network.statistics 	hdistance 	1.0139003907227
scalar one_cache_scenario_network.statistics 	avg_time 	0
scalar one_cache_scenario_network.statistics 	downloads 	179923
scalar one_cache_scenario_network.statistics 	total_cost 	45605
scalar one_cache_scenario_network.statistics 	interests_sent 	179923
scalar one_cache_scenario_network.node[0].core_layer 	interests[0] 	179923
scalar one_cache_scenario_network.node[0].core_layer 	data[0] 	91212
scalar one_cache_scenario_network.node[0].core_layer 	repo_int[0] 	91212
scalar one_cache_scenario_network.node[0].content_store 	p_hit[0] 	0.49304980463865
scalar one_cache_scenario_network.node[0].content_store 	hits[0] 	88711
scalar one_cache_scenario_network.node[0].content_store 	misses[0] 	91212
scalar one_cache_scenario_network.node[0].content_store 	decision_yes[0] 	9
scalar one_cache_scenario_network.node[0].content_store 	decision_no[0] 	91203
scalar one_cache_scenario_network.node[1].core_layer 	interests[1] 	35593
scalar one_cache_scenario_network.node[1].core_layer 	data[1] 	35593
scalar one_cache_scenario_network.node[1].content_store 	p_hit[1] 	0
scalar one_cache_scenario_network.node[1].content_store 	hits[1] 	0
scalar one_cache_scenario_network.node[1].content_store 	misses[1] 	35593
scalar one_cache_scenario_network.node[1].content_store 	decision_yes[1] 	0
scalar one_cache_scenario_network.node[1].content_store 	decision_no[1] 	35593
scalar one_cache_scenario_network.node[2].core_layer 	interests[2] 	55619
scalar one_cache_scenario_network.node[2].core_layer 	data[2] 	55619
scalar one_cache_scenario_network.node[2].content_store 	p_hit[2] 	0
scalar one_cache_scenario_network.node[2].content_store 	hits[2] 	0
scalar one_cache_scenario_network.node[2].content_store 	misses[2] 	55619
scalar one_cache_scenario_network.node[2].content_store 	decision_yes[2] 	0
scalar one_cache_scenario_network.node[2].content_store 	decision_no[2] 	55619
scalar one_cache_scenario_network.node[3].core_layer 	interests[3] 	35593
scalar one_cache_scenario_network.node[3].core_layer 	repo_load[3] 	35593
scalar one_cache_scenario_network.node[3].core_layer 	data[3] 	0
scalar one_cache_scenario_network.node[3].content_store 	p_hit[3] 	0
scalar one_cache_scenario_network.node[3].content_store 	hits[3] 	0
scalar one_cache_scenario_network.node[3].content_store 	misses[3] 	35593
scalar one_cache_scenario_network.node[3].content_store 	decision_yes[3] 	0
scalar one_cache_scenario_network.node[3].content_store 	decision_no[3] 	35593
scalar one_cache_scenario_network.node[4].core_layer 	interests[4] 	55619
scalar one_cache_scenario_network.node[4].core_layer 	repo_load[4] 	55619
scalar one_cache_scenario_network.node[4].core_layer 	data[4] 	0
scalar one_cache_scenario_network.node[4].content_store 	p_hit[4] 	0
scalar one_cache_scenario_network.node[4].content_store 	hits[4] 	0
scalar one_cache_scenario_network.node[4].content_store 	misses[4] 	55619
scalar one_cache_scenario_network.node[4].content_store 	decision_yes[4] 	0
scalar one_cache_scenario_network.node[4].content_store 	decision_no[4] 	55619
scalar one_cache_scenario_network.client[0] 	hdistance[0] 	1.0139003907227
scalar one_cache_scenario_network.client[0] 	downloads[0] 	179923
scalar one_cache_scenario_network.client[0] 	avg_time[0] 	0
scalar one_cache_scenario_network.client[0] 	interests_sent[0] 	179923
