version 2
run General-5-20150521-12:38:03-11567
attr D fix0.01
attr F nrr
attr R lru
attr a 1
attr configname General
attr datetime 20150521-12:38:03
attr experiment General
attr inifile omnetpp.ini
attr iterationvars "$net=geant, $rep=0, $a=1, $F=nrr, $ttl=1000, $D=fix0.01, $R=lru"
attr iterationvars2 "$net=geant, $rep=0, $a=1, $F=nrr, $ttl=1000, $D=fix0.01, $R=lru, $repetition=0"
attr measurement "$net=geant, $rep=0, $a=1, $F=nrr, $ttl=1000, $D=fix0.01, $R=lru"
attr net geant
attr network networks.${net=abilene,geant}_network
attr processid 11567
attr rep 0
attr repetition 0
attr replication #0
attr resultdir results
attr runnumber 5
attr seedset 0
attr ttl 1000

scalar . 	a 	1
scalar . 	rep 	0
scalar . 	ttl 	1000
scalar geant_network.content_distribution 	repo-0 	5
scalar geant_network.content_distribution 	repo-1 	11
scalar geant_network.content_distribution 	repo-2 	12
scalar geant_network.content_distribution 	repo-3 	8
scalar geant_network.content_distribution 	repo-4 	9
scalar geant_network.content_distribution 	repo-5 	15
scalar geant_network.content_distribution 	repo-6 	0
scalar geant_network.content_distribution 	repo-7 	16
scalar geant_network.content_distribution 	repo-8 	1
scalar geant_network.content_distribution 	repo-9 	7
scalar geant_network.content_distribution 	repo-10 	13
scalar geant_network.content_distribution 	client-0 	6
scalar geant_network.content_distribution 	client-1 	18
scalar geant_network.content_distribution 	client-2 	20
scalar geant_network.content_distribution 	client-3 	5
scalar geant_network.content_distribution 	client-4 	11
scalar geant_network.content_distribution 	client-5 	10
scalar geant_network.content_distribution 	client-6 	14
scalar geant_network.content_distribution 	client-7 	4
scalar geant_network.content_distribution 	client-8 	9
scalar geant_network.content_distribution 	client-9 	17
scalar geant_network.content_distribution 	client-10 	0
scalar geant_network.content_distribution 	repo-0_card 	930
scalar geant_network.content_distribution 	repo-0_price 	0
scalar geant_network.content_distribution 	repo-1_card 	837
scalar geant_network.content_distribution 	repo-1_price 	0
scalar geant_network.content_distribution 	repo-2_card 	907
scalar geant_network.content_distribution 	repo-2_price 	0
scalar geant_network.content_distribution 	repo-3_card 	917
scalar geant_network.content_distribution 	repo-3_price 	0
scalar geant_network.content_distribution 	repo-4_card 	886
scalar geant_network.content_distribution 	repo-4_price 	0
scalar geant_network.content_distribution 	repo-5_card 	971
scalar geant_network.content_distribution 	repo-5_price 	0
scalar geant_network.content_distribution 	repo-6_card 	916
scalar geant_network.content_distribution 	repo-6_price 	0
scalar geant_network.content_distribution 	repo-7_card 	937
scalar geant_network.content_distribution 	repo-7_price 	0
scalar geant_network.content_distribution 	repo-8_card 	889
scalar geant_network.content_distribution 	repo-8_price 	0
scalar geant_network.content_distribution 	repo-9_card 	894
scalar geant_network.content_distribution 	repo-9_price 	0
scalar geant_network.content_distribution 	repo-10_card 	916
scalar geant_network.content_distribution 	repo-10_price 	0
scalar geant_network.statistics 	stabilization_time 	36120
scalar geant_network.statistics 	p_hit 	0.33116529883399
scalar geant_network.statistics 	interests 	1921.8636363636
scalar geant_network.statistics 	data 	1029.6363636364
scalar geant_network.statistics 	hdistance 	1.4402697129885
scalar geant_network.statistics 	avg_time 	0.010465262411
scalar geant_network.statistics 	downloads 	19629
scalar geant_network.statistics 	total_cost 	0
scalar geant_network.statistics 	total_replicas 	10000
scalar geant_network.statistics 	inner_hit 	0.71338325946304
scalar geant_network.statistics 	interests_sent 	19629
scalar geant_network.node[0].core_layer 	interests[0] 	2387
scalar geant_network.node[0].core_layer 	repo_load[0] 	534
scalar geant_network.node[0].core_layer 	data[0] 	964
scalar geant_network.node[0].core_layer 	repo_int[0] 	5626
scalar geant_network.node[0].content_store 	p_hit[0] 	0.37243401759531
scalar geant_network.node[0].content_store 	hits[0] 	889
scalar geant_network.node[0].content_store 	misses[0] 	1498
scalar geant_network.node[0].content_store 	decision_yes[0] 	17
scalar geant_network.node[0].content_store 	decision_no[0] 	1481
scalar geant_network.node[0].content_store 	decision_ratio[0] 	0.011348464619493
scalar geant_network.node[1].core_layer 	interests[1] 	1644
scalar geant_network.node[1].core_layer 	repo_load[1] 	498
scalar geant_network.node[1].core_layer 	data[1] 	815
scalar geant_network.node[1].content_store 	p_hit[1] 	0.20133819951338
scalar geant_network.node[1].content_store 	hits[1] 	331
scalar geant_network.node[1].content_store 	misses[1] 	1313
scalar geant_network.node[1].content_store 	decision_yes[1] 	7
scalar geant_network.node[1].content_store 	decision_no[1] 	1306
scalar geant_network.node[1].content_store 	decision_ratio[1] 	0.0053313023610053
scalar geant_network.node[2].core_layer 	interests[2] 	0
scalar geant_network.node[2].core_layer 	data[2] 	0
scalar geant_network.node[2].content_store 	p_hit[2] 	-nan
scalar geant_network.node[2].content_store 	hits[2] 	0
scalar geant_network.node[2].content_store 	misses[2] 	0
scalar geant_network.node[2].content_store 	decision_yes[2] 	0
scalar geant_network.node[2].content_store 	decision_no[2] 	0
scalar geant_network.node[2].content_store 	decision_ratio[2] 	0
scalar geant_network.node[3].core_layer 	interests[3] 	2358
scalar geant_network.node[3].core_layer 	data[3] 	1937
scalar geant_network.node[3].content_store 	p_hit[3] 	0.1785411365564
scalar geant_network.node[3].content_store 	hits[3] 	421
scalar geant_network.node[3].content_store 	misses[3] 	1937
scalar geant_network.node[3].content_store 	decision_yes[3] 	30
scalar geant_network.node[3].content_store 	decision_no[3] 	1907
scalar geant_network.node[3].content_store 	decision_ratio[3] 	0.015487867836861
scalar geant_network.node[4].core_layer 	interests[4] 	3311
scalar geant_network.node[4].core_layer 	data[4] 	2288
scalar geant_network.node[4].content_store 	p_hit[4] 	0.30897009966777
scalar geant_network.node[4].content_store 	hits[4] 	1023
scalar geant_network.node[4].content_store 	misses[4] 	2288
scalar geant_network.node[4].content_store 	decision_yes[4] 	21
scalar geant_network.node[4].content_store 	decision_no[4] 	2267
scalar geant_network.node[4].content_store 	decision_ratio[4] 	0.0091783216783217
scalar geant_network.node[5].core_layer 	interests[5] 	3130
scalar geant_network.node[5].core_layer 	repo_load[5] 	631
scalar geant_network.node[5].core_layer 	data[5] 	1365
scalar geant_network.node[5].content_store 	p_hit[5] 	0.36230031948882
scalar geant_network.node[5].content_store 	hits[5] 	1134
scalar geant_network.node[5].content_store 	misses[5] 	1996
scalar geant_network.node[5].content_store 	decision_yes[5] 	20
scalar geant_network.node[5].content_store 	decision_no[5] 	1976
scalar geant_network.node[5].content_store 	decision_ratio[5] 	0.01002004008016
scalar geant_network.node[6].core_layer 	interests[6] 	2064
scalar geant_network.node[6].core_layer 	data[6] 	1163
scalar geant_network.node[6].content_store 	p_hit[6] 	0.43653100775194
scalar geant_network.node[6].content_store 	hits[6] 	901
scalar geant_network.node[6].content_store 	misses[6] 	1163
scalar geant_network.node[6].content_store 	decision_yes[6] 	12
scalar geant_network.node[6].content_store 	decision_no[6] 	1151
scalar geant_network.node[6].content_store 	decision_ratio[6] 	0.010318142734308
scalar geant_network.node[7].core_layer 	interests[7] 	1557
scalar geant_network.node[7].core_layer 	repo_load[7] 	467
scalar geant_network.node[7].core_layer 	data[7] 	797
scalar geant_network.node[7].content_store 	p_hit[7] 	0.18818240205523
scalar geant_network.node[7].content_store 	hits[7] 	293
scalar geant_network.node[7].content_store 	misses[7] 	1264
scalar geant_network.node[7].content_store 	decision_yes[7] 	14
scalar geant_network.node[7].content_store 	decision_no[7] 	1250
scalar geant_network.node[7].content_store 	decision_ratio[7] 	0.011075949367089
scalar geant_network.node[8].core_layer 	interests[8] 	1000
scalar geant_network.node[8].core_layer 	repo_load[8] 	462
scalar geant_network.node[8].core_layer 	data[8] 	342
scalar geant_network.node[8].content_store 	p_hit[8] 	0.196
scalar geant_network.node[8].content_store 	hits[8] 	196
scalar geant_network.node[8].content_store 	misses[8] 	804
scalar geant_network.node[8].content_store 	decision_yes[8] 	7
scalar geant_network.node[8].content_store 	decision_no[8] 	797
scalar geant_network.node[8].content_store 	decision_ratio[8] 	0.0087064676616915
scalar geant_network.node[9].core_layer 	interests[9] 	3159
scalar geant_network.node[9].core_layer 	repo_load[9] 	538
scalar geant_network.node[9].core_layer 	data[9] 	1638
scalar geant_network.node[9].content_store 	p_hit[9] 	0.31085786641342
scalar geant_network.node[9].content_store 	hits[9] 	982
scalar geant_network.node[9].content_store 	misses[9] 	2177
scalar geant_network.node[9].content_store 	decision_yes[9] 	16
scalar geant_network.node[9].content_store 	decision_no[9] 	2160
scalar geant_network.node[9].content_store 	decision_ratio[9] 	0.0073529411764706
scalar geant_network.node[10].core_layer 	interests[10] 	2221
scalar geant_network.node[10].core_layer 	data[10] 	1153
scalar geant_network.node[10].content_store 	p_hit[10] 	0.4808644754615
scalar geant_network.node[10].content_store 	hits[10] 	1068
scalar geant_network.node[10].content_store 	misses[10] 	1153
scalar geant_network.node[10].content_store 	decision_yes[10] 	16
scalar geant_network.node[10].content_store 	decision_no[10] 	1137
scalar geant_network.node[10].content_store 	decision_ratio[10] 	0.013876843018213
scalar geant_network.node[11].core_layer 	interests[11] 	2261
scalar geant_network.node[11].core_layer 	repo_load[11] 	494
scalar geant_network.node[11].core_layer 	data[11] 	855
scalar geant_network.node[11].content_store 	p_hit[11] 	0.40336134453782
scalar geant_network.node[11].content_store 	hits[11] 	912
scalar geant_network.node[11].content_store 	misses[11] 	1349
scalar geant_network.node[11].content_store 	decision_yes[11] 	15
scalar geant_network.node[11].content_store 	decision_no[11] 	1334
scalar geant_network.node[11].content_store 	decision_ratio[11] 	0.011119347664937
scalar geant_network.node[12].core_layer 	interests[12] 	2871
scalar geant_network.node[12].core_layer 	repo_load[12] 	558
scalar geant_network.node[12].core_layer 	data[12] 	1959
scalar geant_network.node[12].content_store 	p_hit[12] 	0.12330198537095
scalar geant_network.node[12].content_store 	hits[12] 	354
scalar geant_network.node[12].content_store 	misses[12] 	2517
scalar geant_network.node[12].content_store 	decision_yes[12] 	27
scalar geant_network.node[12].content_store 	decision_no[12] 	2490
scalar geant_network.node[12].content_store 	decision_ratio[12] 	0.01072705601907
scalar geant_network.node[13].core_layer 	interests[13] 	1034
scalar geant_network.node[13].core_layer 	repo_load[13] 	457
scalar geant_network.node[13].core_layer 	data[13] 	326
scalar geant_network.node[13].content_store 	p_hit[13] 	0.24274661508704
scalar geant_network.node[13].content_store 	hits[13] 	251
scalar geant_network.node[13].content_store 	misses[13] 	783
scalar geant_network.node[13].content_store 	decision_yes[13] 	8
scalar geant_network.node[13].content_store 	decision_no[13] 	775
scalar geant_network.node[13].content_store 	decision_ratio[13] 	0.01021711366539
scalar geant_network.node[14].core_layer 	interests[14] 	3122
scalar geant_network.node[14].core_layer 	data[14] 	2004
scalar geant_network.node[14].content_store 	p_hit[14] 	0.35810377962844
scalar geant_network.node[14].content_store 	hits[14] 	1118
scalar geant_network.node[14].content_store 	misses[14] 	2004
scalar geant_network.node[14].content_store 	decision_yes[14] 	26
scalar geant_network.node[14].content_store 	decision_no[14] 	1978
scalar geant_network.node[14].content_store 	decision_ratio[14] 	0.012974051896208
scalar geant_network.node[15].core_layer 	interests[15] 	1620
scalar geant_network.node[15].core_layer 	repo_load[15] 	565
scalar geant_network.node[15].core_layer 	data[15] 	640
scalar geant_network.node[15].content_store 	p_hit[15] 	0.25617283950617
scalar geant_network.node[15].content_store 	hits[15] 	415
scalar geant_network.node[15].content_store 	misses[15] 	1205
scalar geant_network.node[15].content_store 	decision_yes[15] 	15
scalar geant_network.node[15].content_store 	decision_no[15] 	1190
scalar geant_network.node[15].content_store 	decision_ratio[15] 	0.012448132780083
scalar geant_network.node[16].core_layer 	interests[16] 	563
scalar geant_network.node[16].core_layer 	repo_load[16] 	422
scalar geant_network.node[16].core_layer 	data[16] 	0
scalar geant_network.node[16].content_store 	p_hit[16] 	0.25044404973357
scalar geant_network.node[16].content_store 	hits[16] 	141
scalar geant_network.node[16].content_store 	misses[16] 	422
scalar geant_network.node[16].content_store 	decision_yes[16] 	2
scalar geant_network.node[16].content_store 	decision_no[16] 	420
scalar geant_network.node[16].content_store 	decision_ratio[16] 	0.004739336492891
scalar geant_network.node[17].core_layer 	interests[17] 	2073
scalar geant_network.node[17].core_layer 	data[17] 	1144
scalar geant_network.node[17].content_store 	p_hit[17] 	0.44814278822962
scalar geant_network.node[17].content_store 	hits[17] 	929
scalar geant_network.node[17].content_store 	misses[17] 	1144
scalar geant_network.node[17].content_store 	decision_yes[17] 	10
scalar geant_network.node[17].content_store 	decision_no[17] 	1134
scalar geant_network.node[17].content_store 	decision_ratio[17] 	0.0087412587412587
scalar geant_network.node[18].core_layer 	interests[18] 	2991
scalar geant_network.node[18].core_layer 	data[18] 	1660
scalar geant_network.node[18].content_store 	p_hit[18] 	0.44500167168171
scalar geant_network.node[18].content_store 	hits[18] 	1331
scalar geant_network.node[18].content_store 	misses[18] 	1660
scalar geant_network.node[18].content_store 	decision_yes[18] 	13
scalar geant_network.node[18].content_store 	decision_no[18] 	1647
scalar geant_network.node[18].content_store 	decision_ratio[18] 	0.0078313253012048
scalar geant_network.node[19].core_layer 	interests[19] 	0
scalar geant_network.node[19].core_layer 	data[19] 	0
scalar geant_network.node[19].content_store 	p_hit[19] 	-nan
scalar geant_network.node[19].content_store 	hits[19] 	0
scalar geant_network.node[19].content_store 	misses[19] 	0
scalar geant_network.node[19].content_store 	decision_yes[19] 	0
scalar geant_network.node[19].content_store 	decision_no[19] 	0
scalar geant_network.node[19].content_store 	decision_ratio[19] 	0
scalar geant_network.node[20].core_layer 	interests[20] 	1968
scalar geant_network.node[20].core_layer 	data[20] 	1002
scalar geant_network.node[20].content_store 	p_hit[20] 	0.49085365853659
scalar geant_network.node[20].content_store 	hits[20] 	966
scalar geant_network.node[20].content_store 	misses[20] 	1002
scalar geant_network.node[20].content_store 	decision_yes[20] 	12
scalar geant_network.node[20].content_store 	decision_no[20] 	990
scalar geant_network.node[20].content_store 	decision_ratio[20] 	0.011976047904192
scalar geant_network.node[21].core_layer 	interests[21] 	947
scalar geant_network.node[21].core_layer 	data[21] 	600
scalar geant_network.node[21].content_store 	p_hit[21] 	0.36642027455121
scalar geant_network.node[21].content_store 	hits[21] 	347
scalar geant_network.node[21].content_store 	misses[21] 	600
scalar geant_network.node[21].content_store 	decision_yes[21] 	4
scalar geant_network.node[21].content_store 	decision_no[21] 	596
scalar geant_network.node[21].content_store 	decision_ratio[21] 	0.0066666666666667
scalar geant_network.client[0] 	hdistance[0] 	1.5350028457598
scalar geant_network.client[0] 	downloads[0] 	1757
scalar geant_network.client[0] 	avg_time[0] 	0.027373192502
scalar geant_network.client[0] 	interests_sent[0] 	1757
scalar geant_network.client[4] 	hdistance[4] 	1.2554038680319
scalar geant_network.client[4] 	downloads[4] 	1758
scalar geant_network.client[4] 	avg_time[4] 	0.005537178173
scalar geant_network.client[4] 	interests_sent[4] 	1758
scalar geant_network.client[5] 	hdistance[5] 	1.277061132922
scalar geant_network.client[5] 	downloads[5] 	1783
scalar geant_network.client[5] 	avg_time[5] 	0.007878272131
scalar geant_network.client[5] 	interests_sent[5] 	1783
scalar geant_network.client[6] 	hdistance[6] 	1.5954870665933
scalar geant_network.client[6] 	downloads[6] 	1817
scalar geant_network.client[6] 	avg_time[6] 	0.008438106309
scalar geant_network.client[6] 	interests_sent[6] 	1817
scalar geant_network.client[9] 	hdistance[9] 	1.3233830845771
scalar geant_network.client[9] 	downloads[9] 	1809
scalar geant_network.client[9] 	avg_time[9] 	0.007939070862
scalar geant_network.client[9] 	interests_sent[9] 	1809
scalar geant_network.client[10] 	hdistance[10] 	1.6427771556551
scalar geant_network.client[10] 	downloads[10] 	1786
scalar geant_network.client[10] 	avg_time[10] 	0.007902768309
scalar geant_network.client[10] 	interests_sent[10] 	1786
scalar geant_network.client[11] 	hdistance[11] 	1.4953325554259
scalar geant_network.client[11] 	downloads[11] 	1714
scalar geant_network.client[11] 	avg_time[11] 	0.00871407191
scalar geant_network.client[11] 	interests_sent[11] 	1714
scalar geant_network.client[14] 	hdistance[14] 	1.2266666666667
scalar geant_network.client[14] 	downloads[14] 	1800
scalar geant_network.client[14] 	avg_time[14] 	0.0138554551
scalar geant_network.client[14] 	interests_sent[14] 	1800
scalar geant_network.client[17] 	hdistance[17] 	1.3290502793296
scalar geant_network.client[17] 	downloads[17] 	1790
scalar geant_network.client[17] 	avg_time[17] 	0.009105865465
scalar geant_network.client[17] 	interests_sent[17] 	1790
scalar geant_network.client[18] 	hdistance[18] 	1.3702460850112
scalar geant_network.client[18] 	downloads[18] 	1788
scalar geant_network.client[18] 	avg_time[18] 	0.007414037578
scalar geant_network.client[18] 	interests_sent[18] 	1788
scalar geant_network.client[20] 	hdistance[20] 	1.7925561029009
scalar geant_network.client[20] 	downloads[20] 	1827
scalar geant_network.client[20] 	avg_time[20] 	0.010959868187
scalar geant_network.client[20] 	interests_sent[20] 	1827
