version 2
run General-0-20140625-19:02:06-12338
attr D costprobprodcorr0.01
attr F spr
attr R lru
attr a 1
attr configname General
attr csize 1e3
attr ctlg 1e5
attr datetime 20140625-19:02:06
attr experiment General
attr inifile omnetpp.ini
attr iterationvars "$net=geant_cost, $rep=1, $priceratiovalue=10, $weights=0.333_0.333_0.334, $lambda=100, $a=1, $ctlg=1e5, $F=spr, $ttl=1000, $D=costprobprodcorr0.01, $xi=0.01, $R=lru, $csize=1e3, $pricebits=0, $mytime=1800"
attr iterationvars2 "$net=geant_cost, $rep=1, $priceratiovalue=10, $weights=0.333_0.333_0.334, $lambda=100, $a=1, $ctlg=1e5, $F=spr, $ttl=1000, $D=costprobprodcorr0.01, $xi=0.01, $R=lru, $csize=1e3, $pricebits=0, $mytime=1800, $repetition=0"
attr lambda 100
attr measurement "$net=geant_cost, $rep=1, $priceratiovalue=10, $weights=0.333_0.333_0.334, $lambda=100, $a=1, $ctlg=1e5, $F=spr, $ttl=1000, $D=costprobprodcorr0.01, $xi=0.01, $R=lru, $csize=1e3, $pricebits=0, $mytime=1800"
attr mytime 1800
attr net geant_cost
attr network "networks.${net=geant_cost, abilene_cost}_network"
attr pricebits 0
attr priceratiovalue 10
attr processid 12338
attr rep 1
attr repetition 0
attr replication #0
attr resultdir results
attr runnumber 0
attr seedset 1
attr ttl 1000
attr weights 0.333_0.333_0.334
attr xi 0.01

scalar . 	a 	1
scalar . 	csize 	1e3
scalar . 	ctlg 	1e5
scalar . 	lambda 	100
scalar . 	mytime 	1800
scalar . 	pricebits 	0
scalar . 	priceratiovalue 	10
scalar . 	rep 	1
scalar . 	ttl 	1000
scalar . 	xi 	0.01
scalar geant_cost_network.content_distribution 	repo-0 	22
scalar geant_cost_network.content_distribution 	repo-1 	23
scalar geant_cost_network.content_distribution 	repo-2 	24
scalar geant_cost_network.content_distribution 	client-0 	20
scalar geant_cost_network.content_distribution 	client-1 	10
scalar geant_cost_network.content_distribution 	client-2 	12
scalar geant_cost_network.content_distribution 	client-3 	9
scalar geant_cost_network.content_distribution 	client-4 	5
scalar geant_cost_network.content_distribution 	repo-0_card 	33396
scalar geant_cost_network.content_distribution 	repo-1_card 	33039
scalar geant_cost_network.content_distribution 	repo-2_card 	33565
scalar geant_cost_network.statistics 	repo_popularity[0] 	0.28686251265602
scalar geant_cost_network.statistics 	repo_popularity[1] 	0.2886063426465
scalar geant_cost_network.statistics 	repo_popularity[2] 	0.42453114469748
scalar geant_cost_network.statistics 	stabilization_time 	36060
scalar geant_cost_network.node[7].face$o[4].channel 	price[7] 	0
scalar geant_cost_network.node[7].face$o[4].channel 	represented_price[7] 	0
scalar geant_cost_network.node[8].face$o[3].channel 	price[8] 	0
scalar geant_cost_network.node[8].face$o[3].channel 	represented_price[8] 	0
scalar geant_cost_network.node[21].face$o[5].channel 	price[21] 	0
scalar geant_cost_network.node[21].face$o[5].channel 	represented_price[21] 	0
scalar geant_cost_network.node[22].face$o[1].channel 	price[22] 	0
scalar geant_cost_network.node[22].face$o[1].channel 	represented_price[22] 	0
scalar geant_cost_network.node[23].face$o[1].channel 	price[23] 	1
scalar geant_cost_network.node[23].face$o[1].channel 	represented_price[23] 	1
scalar geant_cost_network.node[24].face$o[1].channel 	price[24] 	10
scalar geant_cost_network.node[24].face$o[1].channel 	represented_price[24] 	10
scalar geant_cost_network.statistics 	p_hit 	0.089910951237883
scalar geant_cost_network.statistics 	interests 	142057
scalar geant_cost_network.statistics 	data 	106043.64
scalar geant_cost_network.statistics 	hdistance 	3.6208019860669
scalar geant_cost_network.statistics 	avg_time 	0.005975198576
scalar geant_cost_network.statistics 	downloads 	894303
scalar geant_cost_network.statistics 	total_cost 	1725530
scalar geant_cost_network.statistics 	total_replicas 	100000
scalar geant_cost_network.statistics 	inner_hit 	0.36274730152979
scalar geant_cost_network.statistics 	interests_sent 	900331
scalar geant_cost_network.node[0].core_layer 	interests[0] 	0
scalar geant_cost_network.node[0].core_layer 	data[0] 	0
scalar geant_cost_network.node[0].core_layer 	repo_int[0] 	569897
scalar geant_cost_network.node[0].content_store 	p_hit[0] 	-nan
scalar geant_cost_network.node[0].content_store 	hits[0] 	0
scalar geant_cost_network.node[0].content_store 	misses[0] 	0
scalar geant_cost_network.node[0].content_store 	decision_yes[0] 	0
scalar geant_cost_network.node[0].content_store 	decision_no[0] 	0
scalar geant_cost_network.node[0].content_store 	decision_ratio[0] 	0
scalar geant_cost_network.node[0].content_store 	correction_factor[0] 	0.014819648008714
scalar geant_cost_network.node[0].content_store 	xi[0] 	0.01
scalar geant_cost_network.node[1].core_layer 	interests[1] 	0
scalar geant_cost_network.node[1].core_layer 	data[1] 	0
scalar geant_cost_network.node[1].content_store 	p_hit[1] 	-nan
scalar geant_cost_network.node[1].content_store 	hits[1] 	0
scalar geant_cost_network.node[1].content_store 	misses[1] 	0
scalar geant_cost_network.node[1].content_store 	decision_yes[1] 	0
scalar geant_cost_network.node[1].content_store 	decision_no[1] 	0
scalar geant_cost_network.node[1].content_store 	decision_ratio[1] 	0
scalar geant_cost_network.node[1].content_store 	correction_factor[1] 	0.014819648008714
scalar geant_cost_network.node[1].content_store 	xi[1] 	0.01
scalar geant_cost_network.node[2].core_layer 	interests[2] 	0
scalar geant_cost_network.node[2].core_layer 	data[2] 	0
scalar geant_cost_network.node[2].content_store 	p_hit[2] 	-nan
scalar geant_cost_network.node[2].content_store 	hits[2] 	0
scalar geant_cost_network.node[2].content_store 	misses[2] 	0
scalar geant_cost_network.node[2].content_store 	decision_yes[2] 	0
scalar geant_cost_network.node[2].content_store 	decision_no[2] 	0
scalar geant_cost_network.node[2].content_store 	decision_ratio[2] 	0
scalar geant_cost_network.node[2].content_store 	correction_factor[2] 	0.014819648008714
scalar geant_cost_network.node[2].content_store 	xi[2] 	0.01
scalar geant_cost_network.node[3].core_layer 	interests[3] 	228336
scalar geant_cost_network.node[3].core_layer 	data[3] 	215752
scalar geant_cost_network.node[3].content_store 	p_hit[3] 	0.055103006096279
scalar geant_cost_network.node[3].content_store 	hits[3] 	12582
scalar geant_cost_network.node[3].content_store 	misses[3] 	215754
scalar geant_cost_network.node[3].content_store 	decision_yes[3] 	1353
scalar geant_cost_network.node[3].content_store 	decision_no[3] 	214399
scalar geant_cost_network.node[3].content_store 	decision_ratio[3] 	0.0062710890281434
scalar geant_cost_network.node[3].content_store 	correction_factor[3] 	0.014819648008714
scalar geant_cost_network.node[3].content_store 	xi[3] 	0.01
scalar geant_cost_network.node[4].core_layer 	interests[4] 	306733
scalar geant_cost_network.node[4].core_layer 	data[4] 	294423
scalar geant_cost_network.node[4].content_store 	p_hit[4] 	0.039920712802339
scalar geant_cost_network.node[4].content_store 	hits[4] 	12245
scalar geant_cost_network.node[4].content_store 	misses[4] 	294488
scalar geant_cost_network.node[4].content_store 	decision_yes[4] 	1801
scalar geant_cost_network.node[4].content_store 	decision_no[4] 	292622
scalar geant_cost_network.node[4].content_store 	decision_ratio[4] 	0.0061170492794381
scalar geant_cost_network.node[4].content_store 	correction_factor[4] 	0.014819648008714
scalar geant_cost_network.node[4].content_store 	xi[4] 	0.01
scalar geant_cost_network.node[5].core_layer 	interests[5] 	179797
scalar geant_cost_network.node[5].core_layer 	data[5] 	172962
scalar geant_cost_network.node[5].content_store 	p_hit[5] 	0.02643536877701
scalar geant_cost_network.node[5].content_store 	hits[5] 	4753
scalar geant_cost_network.node[5].content_store 	misses[5] 	175044
scalar geant_cost_network.node[5].content_store 	decision_yes[5] 	966
scalar geant_cost_network.node[5].content_store 	decision_no[5] 	171996
scalar geant_cost_network.node[5].content_store 	decision_ratio[5] 	0.0055850418010893
scalar geant_cost_network.node[5].content_store 	correction_factor[5] 	0.014819648008714
scalar geant_cost_network.node[5].content_store 	xi[5] 	0.01
scalar geant_cost_network.node[6].core_layer 	interests[6] 	101625
scalar geant_cost_network.node[6].core_layer 	data[6] 	95334
scalar geant_cost_network.node[6].content_store 	p_hit[6] 	0.06190405904059
scalar geant_cost_network.node[6].content_store 	hits[6] 	6291
scalar geant_cost_network.node[6].content_store 	misses[6] 	95334
scalar geant_cost_network.node[6].content_store 	decision_yes[6] 	440
scalar geant_cost_network.node[6].content_store 	decision_no[6] 	94894
scalar geant_cost_network.node[6].content_store 	decision_ratio[6] 	0.0046153523401934
scalar geant_cost_network.node[6].content_store 	correction_factor[6] 	0.014819648008714
scalar geant_cost_network.node[6].content_store 	xi[6] 	0.01
scalar geant_cost_network.node[7].core_layer 	interests[7] 	340681
scalar geant_cost_network.node[7].core_layer 	data[7] 	328020
scalar geant_cost_network.node[7].content_store 	p_hit[7] 	0.037137380716858
scalar geant_cost_network.node[7].content_store 	hits[7] 	12652
scalar geant_cost_network.node[7].content_store 	misses[7] 	328029
scalar geant_cost_network.node[7].content_store 	decision_yes[7] 	848
scalar geant_cost_network.node[7].content_store 	decision_no[7] 	327172
scalar geant_cost_network.node[7].content_store 	decision_ratio[7] 	0.002585208219011
scalar geant_cost_network.node[7].content_store 	correction_factor[7] 	0.014819648008714
scalar geant_cost_network.node[7].content_store 	xi[7] 	0.01
scalar geant_cost_network.node[8].core_layer 	interests[8] 	300507
scalar geant_cost_network.node[8].core_layer 	data[8] 	259235
scalar geant_cost_network.node[8].content_store 	p_hit[8] 	0.13734122666028
scalar geant_cost_network.node[8].content_store 	hits[8] 	41272
scalar geant_cost_network.node[8].content_store 	misses[8] 	259235
scalar geant_cost_network.node[8].content_store 	decision_yes[8] 	2301
scalar geant_cost_network.node[8].content_store 	decision_no[8] 	256934
scalar geant_cost_network.node[8].content_store 	decision_ratio[8] 	0.0088761162651648
scalar geant_cost_network.node[8].content_store 	correction_factor[8] 	0.014819648008714
scalar geant_cost_network.node[8].content_store 	xi[8] 	0.01
scalar geant_cost_network.node[9].core_layer 	interests[9] 	405968
scalar geant_cost_network.node[9].core_layer 	data[9] 	365900
scalar geant_cost_network.node[9].content_store 	p_hit[9] 	0.090753458400662
scalar geant_cost_network.node[9].content_store 	hits[9] 	36843
scalar geant_cost_network.node[9].content_store 	misses[9] 	369125
scalar geant_cost_network.node[9].content_store 	decision_yes[9] 	2416
scalar geant_cost_network.node[9].content_store 	decision_no[9] 	363484
scalar geant_cost_network.node[9].content_store 	decision_ratio[9] 	0.0066028969663843
scalar geant_cost_network.node[9].content_store 	correction_factor[9] 	0.014819648008714
scalar geant_cost_network.node[9].content_store 	xi[9] 	0.01
scalar geant_cost_network.node[10].core_layer 	interests[10] 	180099
scalar geant_cost_network.node[10].core_layer 	data[10] 	174458
scalar geant_cost_network.node[10].content_store 	p_hit[10] 	0.023153932004064
scalar geant_cost_network.node[10].content_store 	hits[10] 	4170
scalar geant_cost_network.node[10].content_store 	misses[10] 	175929
scalar geant_cost_network.node[10].content_store 	decision_yes[10] 	960
scalar geant_cost_network.node[10].content_store 	decision_no[10] 	173498
scalar geant_cost_network.node[10].content_store 	decision_ratio[10] 	0.005502757110594
scalar geant_cost_network.node[10].content_store 	correction_factor[10] 	0.014819648008714
scalar geant_cost_network.node[10].content_store 	xi[10] 	0.01
scalar geant_cost_network.node[11].core_layer 	interests[11] 	0
scalar geant_cost_network.node[11].core_layer 	data[11] 	0
scalar geant_cost_network.node[11].content_store 	p_hit[11] 	-nan
scalar geant_cost_network.node[11].content_store 	hits[11] 	0
scalar geant_cost_network.node[11].content_store 	misses[11] 	0
scalar geant_cost_network.node[11].content_store 	decision_yes[11] 	0
scalar geant_cost_network.node[11].content_store 	decision_no[11] 	0
scalar geant_cost_network.node[11].content_store 	decision_ratio[11] 	0
scalar geant_cost_network.node[11].content_store 	correction_factor[11] 	0.014819648008714
scalar geant_cost_network.node[11].content_store 	xi[11] 	0.01
scalar geant_cost_network.node[12].core_layer 	interests[12] 	315999
scalar geant_cost_network.node[12].core_layer 	data[12] 	279902
scalar geant_cost_network.node[12].content_store 	p_hit[12] 	0.10170601805702
scalar geant_cost_network.node[12].content_store 	hits[12] 	32139
scalar geant_cost_network.node[12].content_store 	misses[12] 	283860
scalar geant_cost_network.node[12].content_store 	decision_yes[12] 	1861
scalar geant_cost_network.node[12].content_store 	decision_no[12] 	278041
scalar geant_cost_network.node[12].content_store 	decision_ratio[12] 	0.0066487556359011
scalar geant_cost_network.node[12].content_store 	correction_factor[12] 	0.014819648008714
scalar geant_cost_network.node[12].content_store 	xi[12] 	0.01
scalar geant_cost_network.node[13].core_layer 	interests[13] 	0
scalar geant_cost_network.node[13].core_layer 	data[13] 	0
scalar geant_cost_network.node[13].content_store 	p_hit[13] 	-nan
scalar geant_cost_network.node[13].content_store 	hits[13] 	0
scalar geant_cost_network.node[13].content_store 	misses[13] 	0
scalar geant_cost_network.node[13].content_store 	decision_yes[13] 	0
scalar geant_cost_network.node[13].content_store 	decision_no[13] 	0
scalar geant_cost_network.node[13].content_store 	decision_ratio[13] 	0
scalar geant_cost_network.node[13].content_store 	correction_factor[13] 	0.014819648008714
scalar geant_cost_network.node[13].content_store 	xi[13] 	0.01
scalar geant_cost_network.node[14].core_layer 	interests[14] 	71336
scalar geant_cost_network.node[14].core_layer 	data[14] 	58449
scalar geant_cost_network.node[14].content_store 	p_hit[14] 	0.1806521251542
scalar geant_cost_network.node[14].content_store 	hits[14] 	12887
scalar geant_cost_network.node[14].content_store 	misses[14] 	58449
scalar geant_cost_network.node[14].content_store 	decision_yes[14] 	475
scalar geant_cost_network.node[14].content_store 	decision_no[14] 	57974
scalar geant_cost_network.node[14].content_store 	decision_ratio[14] 	0.0081267429725059
scalar geant_cost_network.node[14].content_store 	correction_factor[14] 	0.014819648008714
scalar geant_cost_network.node[14].content_store 	xi[14] 	0.01
scalar geant_cost_network.node[15].core_layer 	interests[15] 	0
scalar geant_cost_network.node[15].core_layer 	data[15] 	0
scalar geant_cost_network.node[15].content_store 	p_hit[15] 	-nan
scalar geant_cost_network.node[15].content_store 	hits[15] 	0
scalar geant_cost_network.node[15].content_store 	misses[15] 	0
scalar geant_cost_network.node[15].content_store 	decision_yes[15] 	0
scalar geant_cost_network.node[15].content_store 	decision_no[15] 	0
scalar geant_cost_network.node[15].content_store 	decision_ratio[15] 	0
scalar geant_cost_network.node[15].content_store 	correction_factor[15] 	0.014819648008714
scalar geant_cost_network.node[15].content_store 	xi[15] 	0.01
scalar geant_cost_network.node[16].core_layer 	interests[16] 	0
scalar geant_cost_network.node[16].core_layer 	data[16] 	0
scalar geant_cost_network.node[16].content_store 	p_hit[16] 	-nan
scalar geant_cost_network.node[16].content_store 	hits[16] 	0
scalar geant_cost_network.node[16].content_store 	misses[16] 	0
scalar geant_cost_network.node[16].content_store 	decision_yes[16] 	0
scalar geant_cost_network.node[16].content_store 	decision_no[16] 	0
scalar geant_cost_network.node[16].content_store 	decision_ratio[16] 	0
scalar geant_cost_network.node[16].content_store 	correction_factor[16] 	0.014819648008714
scalar geant_cost_network.node[16].content_store 	xi[16] 	0.01
scalar geant_cost_network.node[17].core_layer 	interests[17] 	0
scalar geant_cost_network.node[17].core_layer 	data[17] 	0
scalar geant_cost_network.node[17].content_store 	p_hit[17] 	-nan
scalar geant_cost_network.node[17].content_store 	hits[17] 	0
scalar geant_cost_network.node[17].content_store 	misses[17] 	0
scalar geant_cost_network.node[17].content_store 	decision_yes[17] 	0
scalar geant_cost_network.node[17].content_store 	decision_no[17] 	0
scalar geant_cost_network.node[17].content_store 	decision_ratio[17] 	0
scalar geant_cost_network.node[17].content_store 	correction_factor[17] 	0.014819648008714
scalar geant_cost_network.node[17].content_store 	xi[17] 	0.01
scalar geant_cost_network.node[18].core_layer 	interests[18] 	97539
scalar geant_cost_network.node[18].core_layer 	data[18] 	90979
scalar geant_cost_network.node[18].content_store 	p_hit[18] 	0.067255149222362
scalar geant_cost_network.node[18].content_store 	hits[18] 	6560
scalar geant_cost_network.node[18].content_store 	misses[18] 	90979
scalar geant_cost_network.node[18].content_store 	decision_yes[18] 	426
scalar geant_cost_network.node[18].content_store 	decision_no[18] 	90553
scalar geant_cost_network.node[18].content_store 	decision_ratio[18] 	0.0046823992349883
scalar geant_cost_network.node[18].content_store 	correction_factor[18] 	0.014819648008714
scalar geant_cost_network.node[18].content_store 	xi[18] 	0.01
scalar geant_cost_network.node[19].core_layer 	interests[19] 	0
scalar geant_cost_network.node[19].core_layer 	data[19] 	0
scalar geant_cost_network.node[19].content_store 	p_hit[19] 	-nan
scalar geant_cost_network.node[19].content_store 	hits[19] 	0
scalar geant_cost_network.node[19].content_store 	misses[19] 	0
scalar geant_cost_network.node[19].content_store 	decision_yes[19] 	0
scalar geant_cost_network.node[19].content_store 	decision_no[19] 	0
scalar geant_cost_network.node[19].content_store 	decision_ratio[19] 	0
scalar geant_cost_network.node[19].content_store 	correction_factor[19] 	0.014819648008714
scalar geant_cost_network.node[19].content_store 	xi[19] 	0.01
scalar geant_cost_network.node[20].core_layer 	interests[20] 	180808
scalar geant_cost_network.node[20].core_layer 	data[20] 	158707
scalar geant_cost_network.node[20].content_store 	p_hit[20] 	0.12050351754347
scalar geant_cost_network.node[20].content_store 	hits[20] 	21788
scalar geant_cost_network.node[20].content_store 	misses[20] 	159020
scalar geant_cost_network.node[20].content_store 	decision_yes[20] 	920
scalar geant_cost_network.node[20].content_store 	decision_no[20] 	157787
scalar geant_cost_network.node[20].content_store 	decision_ratio[20] 	0.0057968457597964
scalar geant_cost_network.node[20].content_store 	correction_factor[20] 	0.014819648008714
scalar geant_cost_network.node[20].content_store 	xi[20] 	0.01
scalar geant_cost_network.node[21].core_layer 	interests[21] 	272100
scalar geant_cost_network.node[21].core_layer 	data[21] 	156970
scalar geant_cost_network.node[21].content_store 	p_hit[21] 	0.42311650128629
scalar geant_cost_network.node[21].content_store 	hits[21] 	115130
scalar geant_cost_network.node[21].content_store 	misses[21] 	156970
scalar geant_cost_network.node[21].content_store 	decision_yes[21] 	2441
scalar geant_cost_network.node[21].content_store 	decision_no[21] 	154529
scalar geant_cost_network.node[21].content_store 	decision_ratio[21] 	0.015550742180034
scalar geant_cost_network.node[21].content_store 	correction_factor[21] 	0.014819648008714
scalar geant_cost_network.node[21].content_store 	xi[21] 	0.01
scalar geant_cost_network.node[22].core_layer 	interests[22] 	257097
scalar geant_cost_network.node[22].core_layer 	repo_load[22] 	257097
scalar geant_cost_network.node[22].core_layer 	data[22] 	0
scalar geant_cost_network.node[22].content_store 	p_hit[22] 	0
scalar geant_cost_network.node[22].content_store 	hits[22] 	0
scalar geant_cost_network.node[22].content_store 	misses[22] 	257097
scalar geant_cost_network.node[22].content_store 	decision_yes[22] 	0
scalar geant_cost_network.node[22].content_store 	decision_no[22] 	257097
scalar geant_cost_network.node[22].content_store 	decision_ratio[22] 	0
scalar geant_cost_network.node[23].core_layer 	interests[23] 	155830
scalar geant_cost_network.node[23].core_layer 	repo_load[23] 	155830
scalar geant_cost_network.node[23].core_layer 	data[23] 	0
scalar geant_cost_network.node[23].content_store 	p_hit[23] 	0
scalar geant_cost_network.node[23].content_store 	hits[23] 	0
scalar geant_cost_network.node[23].content_store 	misses[23] 	155830
scalar geant_cost_network.node[23].content_store 	decision_yes[23] 	0
scalar geant_cost_network.node[23].content_store 	decision_no[23] 	155830
scalar geant_cost_network.node[23].content_store 	decision_ratio[23] 	0
scalar geant_cost_network.node[24].core_layer 	interests[24] 	156970
scalar geant_cost_network.node[24].core_layer 	repo_load[24] 	156970
scalar geant_cost_network.node[24].core_layer 	data[24] 	0
scalar geant_cost_network.node[24].content_store 	p_hit[24] 	0
scalar geant_cost_network.node[24].content_store 	hits[24] 	0
scalar geant_cost_network.node[24].content_store 	misses[24] 	156970
scalar geant_cost_network.node[24].content_store 	decision_yes[24] 	0
scalar geant_cost_network.node[24].content_store 	decision_no[24] 	156970
scalar geant_cost_network.node[24].content_store 	decision_ratio[24] 	0
scalar geant_cost_network.client[5] 	hdistance[5] 	3.3025799735532
scalar geant_cost_network.client[5] 	downloads[5] 	177715
scalar geant_cost_network.client[5] 	avg_time[5] 	0.00989988988
scalar geant_cost_network.client[5] 	interests_sent[5] 	179797
scalar geant_cost_network.client[9] 	hdistance[9] 	3.4085208967245
scalar geant_cost_network.client[9] 	downloads[9] 	178784
scalar geant_cost_network.client[9] 	avg_time[9] 	0.003893771847
scalar geant_cost_network.client[9] 	interests_sent[9] 	179943
scalar geant_cost_network.client[10] 	hdistance[10] 	4.3479577669794
scalar geant_cost_network.client[10] 	downloads[10] 	178628
scalar geant_cost_network.client[10] 	avg_time[10] 	0.005785829469
scalar geant_cost_network.client[10] 	interests_sent[10] 	180099
scalar geant_cost_network.client[12] 	hdistance[12] 	3.6805312260397
scalar geant_cost_network.client[12] 	downloads[12] 	178681
scalar geant_cost_network.client[12] 	avg_time[12] 	0.004675693311
scalar geant_cost_network.client[12] 	interests_sent[12] 	179684
scalar geant_cost_network.client[20] 	hdistance[20] 	3.3644200670379
scalar geant_cost_network.client[20] 	downloads[20] 	180495
scalar geant_cost_network.client[20] 	avg_time[20] 	0.005620808374
scalar geant_cost_network.client[20] 	interests_sent[20] 	180808
