version 2
run General-4911-20140425-07:13:50-17348
attr D fix0.0001
attr F nrr
attr R lru
attr a 1.2
attr configname General
attr csize 9
attr ctlg 10^3
attr datetime 20140425-07:13:50
attr experiment General
attr inifile omnetpp.ini
attr iterationvars "$net=one_cache_scenario, $rep=12, $priceratiovalue=7, $a=1.2, $ctlg=10^3, $F=nrr, $ttl=1000, $D=fix0.0001, $R=lru, $csize=9"
attr iterationvars2 "$net=one_cache_scenario, $rep=12, $priceratiovalue=7, $a=1.2, $ctlg=10^3, $F=nrr, $ttl=1000, $D=fix0.0001, $R=lru, $csize=9, $repetition=0"
attr measurement "$net=one_cache_scenario, $rep=12, $priceratiovalue=7, $a=1.2, $ctlg=10^3, $F=nrr, $ttl=1000, $D=fix0.0001, $R=lru, $csize=9"
attr net one_cache_scenario
attr network networks.${net=one_cache_scenario}_network
attr priceratiovalue 7
attr processid 17348
attr rep 12
attr repetition 0
attr replication #0
attr resultdir results
attr runnumber 4911
attr seedset 12
attr ttl 1000

scalar . 	a 	1.2
scalar . 	csize 	9
scalar . 	priceratiovalue 	7
scalar . 	rep 	12
scalar . 	ttl 	1000
scalar one_cache_scenario_network.content_distribution 	repo-0 	3
scalar one_cache_scenario_network.content_distribution 	repo-1 	4
scalar one_cache_scenario_network.content_distribution 	client-0 	0
scalar one_cache_scenario_network.content_distribution 	repo-0_card 	506
scalar one_cache_scenario_network.content_distribution 	repo-1_card 	494
scalar one_cache_scenario_network.statistics 	p_hit 	0.24454141253864
scalar one_cache_scenario_network.statistics 	interests 	72601.2
scalar one_cache_scenario_network.statistics 	data 	36564.8
scalar one_cache_scenario_network.statistics 	hdistance 	1.0146629519042
scalar one_cache_scenario_network.statistics 	avg_time 	0
scalar one_cache_scenario_network.statistics 	downloads 	180182
scalar one_cache_scenario_network.statistics 	total_cost 	55784
scalar one_cache_scenario_network.statistics 	interests_sent 	180182
scalar one_cache_scenario_network.node[0].core_layer 	interests[0] 	180182
scalar one_cache_scenario_network.node[0].core_layer 	data[0] 	91412
scalar one_cache_scenario_network.node[0].core_layer 	repo_int[0] 	91412
scalar one_cache_scenario_network.node[0].content_store 	p_hit[0] 	0.49266852404791
scalar one_cache_scenario_network.node[0].content_store 	hits[0] 	88770
scalar one_cache_scenario_network.node[0].content_store 	misses[0] 	91412
scalar one_cache_scenario_network.node[0].content_store 	decision_yes[0] 	7
scalar one_cache_scenario_network.node[0].content_store 	decision_no[0] 	91405
scalar one_cache_scenario_network.node[1].core_layer 	interests[1] 	32267
scalar one_cache_scenario_network.node[1].core_layer 	data[1] 	32267
scalar one_cache_scenario_network.node[1].content_store 	p_hit[1] 	0
scalar one_cache_scenario_network.node[1].content_store 	hits[1] 	0
scalar one_cache_scenario_network.node[1].content_store 	misses[1] 	32267
scalar one_cache_scenario_network.node[1].content_store 	decision_yes[1] 	0
scalar one_cache_scenario_network.node[1].content_store 	decision_no[1] 	32267
scalar one_cache_scenario_network.node[2].core_layer 	interests[2] 	59145
scalar one_cache_scenario_network.node[2].core_layer 	data[2] 	59145
scalar one_cache_scenario_network.node[2].content_store 	p_hit[2] 	0
scalar one_cache_scenario_network.node[2].content_store 	hits[2] 	0
scalar one_cache_scenario_network.node[2].content_store 	misses[2] 	59145
scalar one_cache_scenario_network.node[2].content_store 	decision_yes[2] 	0
scalar one_cache_scenario_network.node[2].content_store 	decision_no[2] 	59145
scalar one_cache_scenario_network.node[3].core_layer 	interests[3] 	32267
scalar one_cache_scenario_network.node[3].core_layer 	repo_load[3] 	32267
scalar one_cache_scenario_network.node[3].core_layer 	data[3] 	0
scalar one_cache_scenario_network.node[3].content_store 	p_hit[3] 	0
scalar one_cache_scenario_network.node[3].content_store 	hits[3] 	0
scalar one_cache_scenario_network.node[3].content_store 	misses[3] 	32267
scalar one_cache_scenario_network.node[3].content_store 	decision_yes[3] 	0
scalar one_cache_scenario_network.node[3].content_store 	decision_no[3] 	32267
scalar one_cache_scenario_network.node[4].core_layer 	interests[4] 	59145
scalar one_cache_scenario_network.node[4].core_layer 	repo_load[4] 	59145
scalar one_cache_scenario_network.node[4].core_layer 	data[4] 	0
scalar one_cache_scenario_network.node[4].content_store 	p_hit[4] 	0
scalar one_cache_scenario_network.node[4].content_store 	hits[4] 	0
scalar one_cache_scenario_network.node[4].content_store 	misses[4] 	59145
scalar one_cache_scenario_network.node[4].content_store 	decision_yes[4] 	0
scalar one_cache_scenario_network.node[4].content_store 	decision_no[4] 	59145
scalar one_cache_scenario_network.client[0] 	hdistance[0] 	1.0146629519042
scalar one_cache_scenario_network.client[0] 	downloads[0] 	180182
scalar one_cache_scenario_network.client[0] 	avg_time[0] 	0
scalar one_cache_scenario_network.client[0] 	interests_sent[0] 	180182
