version 2
run General-576-20140421-20:14:37-15256
attr D lce
attr F nrr
attr R lru
attr a 0.8
attr configname General
attr csize 10
attr ctlg 10^3
attr datetime 20140421-20:14:37
attr experiment General
attr inifile omnetpp.ini
attr iterationvars "$net=simple_scenario, $rep=15, $priceratiovalue=7, $a=0.8, $ctlg=10^3, $F=nrr, $ttl=1000, $D=lce, $R=lru, $csize=10"
attr iterationvars2 "$net=simple_scenario, $rep=15, $priceratiovalue=7, $a=0.8, $ctlg=10^3, $F=nrr, $ttl=1000, $D=lce, $R=lru, $csize=10, $repetition=0"
attr measurement "$net=simple_scenario, $rep=15, $priceratiovalue=7, $a=0.8, $ctlg=10^3, $F=nrr, $ttl=1000, $D=lce, $R=lru, $csize=10"
attr net simple_scenario
attr network networks.${net=simple_scenario}_network
attr priceratiovalue 7
attr processid 15256
attr rep 15
attr repetition 0
attr replication #0
attr resultdir results
attr runnumber 576
attr seedset 15
attr ttl 1000

scalar . 	a 	0.8
scalar . 	csize 	10
scalar . 	priceratiovalue 	7
scalar . 	rep 	15
scalar . 	ttl 	1000
scalar simple_scenario_network.content_distribution 	repo-0 	3
scalar simple_scenario_network.content_distribution 	repo-1 	4
scalar simple_scenario_network.content_distribution 	client-0 	0
scalar simple_scenario_network.content_distribution 	repo-0_card 	472
scalar simple_scenario_network.content_distribution 	repo-1_card 	528
scalar simple_scenario_network.statistics 	p_hit 	0.049683170529273
scalar simple_scenario_network.statistics 	interests 	100243.2
scalar simple_scenario_network.statistics 	data 	64188
scalar simple_scenario_network.statistics 	hdistance 	2.6421376112184
scalar simple_scenario_network.statistics 	avg_time 	0.001998109093
scalar simple_scenario_network.statistics 	downloads 	180276
scalar simple_scenario_network.statistics 	total_cost 	82326
scalar simple_scenario_network.node[0].core_layer 	interests[0] 	180276
scalar simple_scenario_network.node[0].core_layer 	data[0] 	165566
scalar simple_scenario_network.node[0].core_layer 	repo_int[0] 	155374
scalar simple_scenario_network.node[0].content_store 	p_hit[0] 	0.081597106658679
scalar simple_scenario_network.node[0].content_store 	hits[0] 	14710
scalar simple_scenario_network.node[0].content_store 	misses[0] 	165566
scalar simple_scenario_network.node[1].core_layer 	interests[1] 	77359
scalar simple_scenario_network.node[1].core_layer 	data[1] 	71500
scalar simple_scenario_network.node[1].content_store 	p_hit[1] 	0.075737793921845
scalar simple_scenario_network.node[1].content_store 	hits[1] 	5859
scalar simple_scenario_network.node[1].content_store 	misses[1] 	71500
scalar simple_scenario_network.node[2].core_layer 	interests[2] 	88207
scalar simple_scenario_network.node[2].core_layer 	data[2] 	83874
scalar simple_scenario_network.node[2].content_store 	p_hit[2] 	0.049123085469407
scalar simple_scenario_network.node[2].content_store 	hits[2] 	4333
scalar simple_scenario_network.node[2].content_store 	misses[2] 	83874
scalar simple_scenario_network.node[3].core_layer 	interests[3] 	71500
scalar simple_scenario_network.node[3].core_layer 	repo_load[3] 	71500
scalar simple_scenario_network.node[3].core_layer 	data[3] 	0
scalar simple_scenario_network.node[3].content_store 	p_hit[3] 	0
scalar simple_scenario_network.node[3].content_store 	hits[3] 	0
scalar simple_scenario_network.node[3].content_store 	misses[3] 	71500
scalar simple_scenario_network.node[4].core_layer 	interests[4] 	83874
scalar simple_scenario_network.node[4].core_layer 	repo_load[4] 	83874
scalar simple_scenario_network.node[4].core_layer 	data[4] 	0
scalar simple_scenario_network.node[4].content_store 	p_hit[4] 	0
scalar simple_scenario_network.node[4].content_store 	hits[4] 	0
scalar simple_scenario_network.node[4].content_store 	misses[4] 	83874
scalar simple_scenario_network.client[0] 	hdistance[0] 	2.6421376112184
scalar simple_scenario_network.client[0] 	downloads[0] 	180276
scalar simple_scenario_network.client[0] 	avg_time[0] 	0.001998109093
