version 2
run General-1596-20140421-20:38:08-16362
attr D lce
attr F nrr
attr R lru
attr a 0.8
attr configname General
attr csize 10
attr ctlg 10^3
attr datetime 20140421-20:38:08
attr experiment General
attr inifile omnetpp.ini
attr iterationvars "$net=simple_scenario, $rep=32, $priceratiovalue=7, $a=0.8, $ctlg=10^3, $F=nrr, $ttl=1000, $D=lce, $R=lru, $csize=10"
attr iterationvars2 "$net=simple_scenario, $rep=32, $priceratiovalue=7, $a=0.8, $ctlg=10^3, $F=nrr, $ttl=1000, $D=lce, $R=lru, $csize=10, $repetition=0"
attr measurement "$net=simple_scenario, $rep=32, $priceratiovalue=7, $a=0.8, $ctlg=10^3, $F=nrr, $ttl=1000, $D=lce, $R=lru, $csize=10"
attr net simple_scenario
attr network networks.${net=simple_scenario}_network
attr priceratiovalue 7
attr processid 16362
attr rep 32
attr repetition 0
attr replication #0
attr resultdir results
attr runnumber 1596
attr seedset 32
attr ttl 1000

scalar . 	a 	0.8
scalar . 	csize 	10
scalar . 	priceratiovalue 	7
scalar . 	rep 	32
scalar . 	ttl 	1000
scalar simple_scenario_network.content_distribution 	repo-0 	3
scalar simple_scenario_network.content_distribution 	repo-1 	4
scalar simple_scenario_network.content_distribution 	client-0 	0
scalar simple_scenario_network.content_distribution 	repo-0_card 	518
scalar simple_scenario_network.content_distribution 	repo-1_card 	482
scalar simple_scenario_network.statistics 	p_hit 	0.049289938110482
scalar simple_scenario_network.statistics 	interests 	100146.2
scalar simple_scenario_network.statistics 	data 	64133.2
scalar simple_scenario_network.statistics 	hdistance 	2.6437675283925
scalar simple_scenario_network.statistics 	avg_time 	0.001998013054
scalar simple_scenario_network.statistics 	downloads 	180065
scalar simple_scenario_network.statistics 	total_cost 	77105
scalar simple_scenario_network.node[0].core_layer 	interests[0] 	180065
scalar simple_scenario_network.node[0].core_layer 	data[0] 	165282
scalar simple_scenario_network.node[0].core_layer 	repo_int[0] 	155384
scalar simple_scenario_network.node[0].content_store 	p_hit[0] 	0.082098131230389
scalar simple_scenario_network.node[0].content_store 	hits[0] 	14783
scalar simple_scenario_network.node[0].content_store 	misses[0] 	165282
scalar simple_scenario_network.node[1].core_layer 	interests[1] 	81954
scalar simple_scenario_network.node[1].core_layer 	data[1] 	78474
scalar simple_scenario_network.node[1].content_store 	p_hit[1] 	0.042462845010616
scalar simple_scenario_network.node[1].content_store 	hits[1] 	3480
scalar simple_scenario_network.node[1].content_store 	misses[1] 	78474
scalar simple_scenario_network.node[2].core_layer 	interests[2] 	83328
scalar simple_scenario_network.node[2].core_layer 	data[2] 	76910
scalar simple_scenario_network.node[2].content_store 	p_hit[2] 	0.077020929339478
scalar simple_scenario_network.node[2].content_store 	hits[2] 	6418
scalar simple_scenario_network.node[2].content_store 	misses[2] 	76910
scalar simple_scenario_network.node[3].core_layer 	interests[3] 	78474
scalar simple_scenario_network.node[3].core_layer 	repo_load[3] 	78474
scalar simple_scenario_network.node[3].core_layer 	data[3] 	0
scalar simple_scenario_network.node[3].content_store 	p_hit[3] 	0
scalar simple_scenario_network.node[3].content_store 	hits[3] 	0
scalar simple_scenario_network.node[3].content_store 	misses[3] 	78474
scalar simple_scenario_network.node[4].core_layer 	interests[4] 	76910
scalar simple_scenario_network.node[4].core_layer 	repo_load[4] 	76910
scalar simple_scenario_network.node[4].core_layer 	data[4] 	0
scalar simple_scenario_network.node[4].content_store 	p_hit[4] 	0
scalar simple_scenario_network.node[4].content_store 	hits[4] 	0
scalar simple_scenario_network.node[4].content_store 	misses[4] 	76910
scalar simple_scenario_network.client[0] 	hdistance[0] 	2.6437675283925
scalar simple_scenario_network.client[0] 	downloads[0] 	180065
scalar simple_scenario_network.client[0] 	avg_time[0] 	0.001998013054
