version 2
run General-771-20140425-00:35:50-11785
attr D lce
attr F nrr
attr R lru
attr a 0.8
attr configname General
attr csize 9
attr ctlg 10^3
attr datetime 20140425-00:35:50
attr experiment General
attr inifile omnetpp.ini
attr iterationvars "$net=one_cache_scenario, $rep=2, $priceratiovalue=9, $a=0.8, $ctlg=10^3, $F=nrr, $ttl=1000, $D=lce, $R=lru, $csize=9"
attr iterationvars2 "$net=one_cache_scenario, $rep=2, $priceratiovalue=9, $a=0.8, $ctlg=10^3, $F=nrr, $ttl=1000, $D=lce, $R=lru, $csize=9, $repetition=0"
attr measurement "$net=one_cache_scenario, $rep=2, $priceratiovalue=9, $a=0.8, $ctlg=10^3, $F=nrr, $ttl=1000, $D=lce, $R=lru, $csize=9"
attr net one_cache_scenario
attr network networks.${net=one_cache_scenario}_network
attr priceratiovalue 9
attr processid 11785
attr rep 2
attr repetition 0
attr replication #0
attr resultdir results
attr runnumber 771
attr seedset 2
attr ttl 1000

scalar . 	a 	0.8
scalar . 	csize 	9
scalar . 	priceratiovalue 	9
scalar . 	rep 	2
scalar . 	ttl 	1000
scalar one_cache_scenario_network.content_distribution 	repo-0 	3
scalar one_cache_scenario_network.content_distribution 	repo-1 	4
scalar one_cache_scenario_network.content_distribution 	client-0 	0
scalar one_cache_scenario_network.content_distribution 	repo-0_card 	490
scalar one_cache_scenario_network.content_distribution 	repo-1_card 	510
scalar one_cache_scenario_network.statistics 	p_hit 	0.026546633338541
scalar one_cache_scenario_network.statistics 	interests 	102416
scalar one_cache_scenario_network.statistics 	data 	66464.8
scalar one_cache_scenario_network.statistics 	hdistance 	1.8487505284942
scalar one_cache_scenario_network.statistics 	avg_time 	0
scalar one_cache_scenario_network.statistics 	downloads 	179756
scalar one_cache_scenario_network.statistics 	total_cost 	80496
scalar one_cache_scenario_network.statistics 	interests_sent 	179756
scalar one_cache_scenario_network.node[0].core_layer 	interests[0] 	179756
scalar one_cache_scenario_network.node[0].core_layer 	data[0] 	166162
scalar one_cache_scenario_network.node[0].core_layer 	repo_int[0] 	166162
scalar one_cache_scenario_network.node[0].content_store 	p_hit[0] 	0.075624735752909
scalar one_cache_scenario_network.node[0].content_store 	hits[0] 	13594
scalar one_cache_scenario_network.node[0].content_store 	misses[0] 	166162
scalar one_cache_scenario_network.node[0].content_store 	decision_yes[0] 	166162
scalar one_cache_scenario_network.node[0].content_store 	decision_no[0] 	0
scalar one_cache_scenario_network.node[1].core_layer 	interests[1] 	86311
scalar one_cache_scenario_network.node[1].core_layer 	data[1] 	86311
scalar one_cache_scenario_network.node[1].content_store 	p_hit[1] 	0
scalar one_cache_scenario_network.node[1].content_store 	hits[1] 	0
scalar one_cache_scenario_network.node[1].content_store 	misses[1] 	86311
scalar one_cache_scenario_network.node[1].content_store 	decision_yes[1] 	0
scalar one_cache_scenario_network.node[1].content_store 	decision_no[1] 	86311
scalar one_cache_scenario_network.node[2].core_layer 	interests[2] 	79851
scalar one_cache_scenario_network.node[2].core_layer 	data[2] 	79851
scalar one_cache_scenario_network.node[2].content_store 	p_hit[2] 	0
scalar one_cache_scenario_network.node[2].content_store 	hits[2] 	0
scalar one_cache_scenario_network.node[2].content_store 	misses[2] 	79851
scalar one_cache_scenario_network.node[2].content_store 	decision_yes[2] 	0
scalar one_cache_scenario_network.node[2].content_store 	decision_no[2] 	79851
scalar one_cache_scenario_network.node[3].core_layer 	interests[3] 	86311
scalar one_cache_scenario_network.node[3].core_layer 	repo_load[3] 	86311
scalar one_cache_scenario_network.node[3].core_layer 	data[3] 	0
scalar one_cache_scenario_network.node[3].content_store 	p_hit[3] 	0
scalar one_cache_scenario_network.node[3].content_store 	hits[3] 	0
scalar one_cache_scenario_network.node[3].content_store 	misses[3] 	86311
scalar one_cache_scenario_network.node[3].content_store 	decision_yes[3] 	0
scalar one_cache_scenario_network.node[3].content_store 	decision_no[3] 	86311
scalar one_cache_scenario_network.node[4].core_layer 	interests[4] 	79851
scalar one_cache_scenario_network.node[4].core_layer 	repo_load[4] 	79851
scalar one_cache_scenario_network.node[4].core_layer 	data[4] 	0
scalar one_cache_scenario_network.node[4].content_store 	p_hit[4] 	0
scalar one_cache_scenario_network.node[4].content_store 	hits[4] 	0
scalar one_cache_scenario_network.node[4].content_store 	misses[4] 	79851
scalar one_cache_scenario_network.node[4].content_store 	decision_yes[4] 	0
scalar one_cache_scenario_network.node[4].content_store 	decision_no[4] 	79851
scalar one_cache_scenario_network.client[0] 	hdistance[0] 	1.8487505284942
scalar one_cache_scenario_network.client[0] 	downloads[0] 	179756
scalar one_cache_scenario_network.client[0] 	avg_time[0] 	0
scalar one_cache_scenario_network.client[0] 	interests_sent[0] 	179756
