version 2
run General-58-20140426-05:03:29-23544
attr D fix0.01
attr F nrr
attr R lru
attr a 1.2
attr configname General
attr csize 1000
attr ctlg 10^5
attr datetime 20140426-05:03:29
attr experiment General
attr inifile omnetpp.ini
attr iterationvars "$net=one_cache_scenario, $rep=10, $priceratiovalue=10, $a=1.2, $ctlg=10^5, $F=nrr, $ttl=1000, $D=fix0.01, $R=lru, $csize=1000"
attr iterationvars2 "$net=one_cache_scenario, $rep=10, $priceratiovalue=10, $a=1.2, $ctlg=10^5, $F=nrr, $ttl=1000, $D=fix0.01, $R=lru, $csize=1000, $repetition=0"
attr measurement "$net=one_cache_scenario, $rep=10, $priceratiovalue=10, $a=1.2, $ctlg=10^5, $F=nrr, $ttl=1000, $D=fix0.01, $R=lru, $csize=1000"
attr net one_cache_scenario
attr network networks.${net=one_cache_scenario}_network
attr priceratiovalue 10
attr processid 23544
attr rep 10
attr repetition 0
attr replication #0
attr resultdir results
attr runnumber 58
attr seedset 10
attr ttl 1000

scalar . 	a 	1.2
scalar . 	csize 	1000
scalar . 	priceratiovalue 	10
scalar . 	rep 	10
scalar . 	ttl 	1000
scalar one_cache_scenario_network.content_distribution 	repo-0 	3
scalar one_cache_scenario_network.content_distribution 	repo-1 	4
scalar one_cache_scenario_network.content_distribution 	client-0 	0
scalar one_cache_scenario_network.content_distribution 	repo-0_card 	49870
scalar one_cache_scenario_network.content_distribution 	repo-1_card 	50130
scalar one_cache_scenario_network.statistics 	p_hit 	0.58121501935546
scalar one_cache_scenario_network.statistics 	interests 	50063.4
scalar one_cache_scenario_network.statistics 	data 	13977.2
scalar one_cache_scenario_network.statistics 	hdistance 	0.38732811989071
scalar one_cache_scenario_network.statistics 	avg_time 	0
scalar one_cache_scenario_network.statistics 	downloads 	180431
scalar one_cache_scenario_network.statistics 	total_cost 	17558
scalar one_cache_scenario_network.statistics 	interests_sent 	180431
scalar one_cache_scenario_network.node[0].core_layer 	interests[0] 	180431
scalar one_cache_scenario_network.node[0].core_layer 	data[0] 	34943
scalar one_cache_scenario_network.node[0].core_layer 	repo_int[0] 	34943
scalar one_cache_scenario_network.node[0].content_store 	p_hit[0] 	0.80633594005465
scalar one_cache_scenario_network.node[0].content_store 	hits[0] 	145488
scalar one_cache_scenario_network.node[0].content_store 	misses[0] 	34943
scalar one_cache_scenario_network.node[0].content_store 	decision_yes[0] 	378
scalar one_cache_scenario_network.node[0].content_store 	decision_no[0] 	34565
scalar one_cache_scenario_network.node[1].core_layer 	interests[1] 	17364
scalar one_cache_scenario_network.node[1].core_layer 	data[1] 	17364
scalar one_cache_scenario_network.node[1].content_store 	p_hit[1] 	0
scalar one_cache_scenario_network.node[1].content_store 	hits[1] 	0
scalar one_cache_scenario_network.node[1].content_store 	misses[1] 	17364
scalar one_cache_scenario_network.node[1].content_store 	decision_yes[1] 	0
scalar one_cache_scenario_network.node[1].content_store 	decision_no[1] 	17364
scalar one_cache_scenario_network.node[2].core_layer 	interests[2] 	17579
scalar one_cache_scenario_network.node[2].core_layer 	data[2] 	17579
scalar one_cache_scenario_network.node[2].content_store 	p_hit[2] 	0
scalar one_cache_scenario_network.node[2].content_store 	hits[2] 	0
scalar one_cache_scenario_network.node[2].content_store 	misses[2] 	17579
scalar one_cache_scenario_network.node[2].content_store 	decision_yes[2] 	0
scalar one_cache_scenario_network.node[2].content_store 	decision_no[2] 	17579
scalar one_cache_scenario_network.node[3].core_layer 	interests[3] 	17364
scalar one_cache_scenario_network.node[3].core_layer 	repo_load[3] 	17364
scalar one_cache_scenario_network.node[3].core_layer 	data[3] 	0
scalar one_cache_scenario_network.node[3].content_store 	p_hit[3] 	0
scalar one_cache_scenario_network.node[3].content_store 	hits[3] 	0
scalar one_cache_scenario_network.node[3].content_store 	misses[3] 	17364
scalar one_cache_scenario_network.node[3].content_store 	decision_yes[3] 	0
scalar one_cache_scenario_network.node[3].content_store 	decision_no[3] 	17364
scalar one_cache_scenario_network.node[4].core_layer 	interests[4] 	17579
scalar one_cache_scenario_network.node[4].core_layer 	repo_load[4] 	17579
scalar one_cache_scenario_network.node[4].core_layer 	data[4] 	0
scalar one_cache_scenario_network.node[4].content_store 	p_hit[4] 	0
scalar one_cache_scenario_network.node[4].content_store 	hits[4] 	0
scalar one_cache_scenario_network.node[4].content_store 	misses[4] 	17579
scalar one_cache_scenario_network.node[4].content_store 	decision_yes[4] 	0
scalar one_cache_scenario_network.node[4].content_store 	decision_no[4] 	17579
scalar one_cache_scenario_network.client[0] 	hdistance[0] 	0.38732811989071
scalar one_cache_scenario_network.client[0] 	downloads[0] 	180431
scalar one_cache_scenario_network.client[0] 	avg_time[0] 	0
scalar one_cache_scenario_network.client[0] 	interests_sent[0] 	180431
