version 2
run General-43-20140630-13:27:18-25926
>>>>>>> e1705686414f379fcb9d06a9e50f5d7fe13c2c97
attr D costprobprodcorr0.01
attr F nrr
attr R lru
attr a 1
attr configname General
attr csize 1e3
attr ctlg 1e5
attr datetime 20140630-13:27:18
>>>>>>> e1705686414f379fcb9d06a9e50f5d7fe13c2c97
attr experiment General
attr inifile omnetpp.ini
attr iterationvars "$net=abilene_cost, $rep=13, $priceratiovalue=10, $weights=0.333_0.333_0.334, $lambda=100, $a=1, $ctlg=1e5, $F=nrr, $ttl=1000, $D=costprobprodcorr0.01, $xi=1, $R=lru, $csize=1e3, $pricebits=0, $window=60, $variance=0.05, $mytime=1800"
attr iterationvars2 "$net=abilene_cost, $rep=13, $priceratiovalue=10, $weights=0.333_0.333_0.334, $lambda=100, $a=1, $ctlg=1e5, $F=nrr, $ttl=1000, $D=costprobprodcorr0.01, $xi=1, $R=lru, $csize=1e3, $pricebits=0, $window=60, $variance=0.05, $mytime=1800, $repetition=0"
attr lambda 100
attr measurement "$net=abilene_cost, $rep=13, $priceratiovalue=10, $weights=0.333_0.333_0.334, $lambda=100, $a=1, $ctlg=1e5, $F=nrr, $ttl=1000, $D=costprobprodcorr0.01, $xi=1, $R=lru, $csize=1e3, $pricebits=0, $window=60, $variance=0.05, $mytime=1800"
attr mytime 1800
attr net abilene_cost
attr network "networks.${net=geant_cost, abilene_cost}_network"
attr pricebits 0
attr priceratiovalue 10
attr processid 25926
>>>>>>> e1705686414f379fcb9d06a9e50f5d7fe13c2c97
attr rep 13
attr repetition 0
attr replication #0
attr resultdir results
attr runnumber 43
attr seedset 13
attr ttl 1000
attr variance 0.05
attr weights 0.333_0.333_0.334
attr window 60
attr xi 1

scalar . 	a 	1
scalar . 	csize 	1e3
scalar . 	ctlg 	1e5
scalar . 	lambda 	100
scalar . 	mytime 	1800
scalar . 	pricebits 	0
scalar . 	priceratiovalue 	10
scalar . 	rep 	13
scalar . 	ttl 	1000
scalar . 	variance 	0.05
scalar . 	window 	60
scalar . 	xi 	1
scalar abilene_cost_network.content_distribution 	repo-0 	11
scalar abilene_cost_network.content_distribution 	repo-1 	12
scalar abilene_cost_network.content_distribution 	repo-2 	13
scalar abilene_cost_network.content_distribution 	client-0 	5
scalar abilene_cost_network.content_distribution 	client-1 	0
scalar abilene_cost_network.content_distribution 	client-2 	9
scalar abilene_cost_network.content_distribution 	repo-0_card 	33150
scalar abilene_cost_network.content_distribution 	repo-1_card 	33483
scalar abilene_cost_network.content_distribution 	repo-2_card 	33367
scalar abilene_cost_network.statistics 	repo_popularity[0] 	0.32452364638376
scalar abilene_cost_network.statistics 	repo_popularity[1] 	0.39627169592308
scalar abilene_cost_network.statistics 	repo_popularity[2] 	0.27920465769315
scalar abilene_cost_network.statistics 	stabilization_time 	1991.2
scalar abilene_cost_network.node[1].face$o[4].channel 	price[1] 	0
scalar abilene_cost_network.node[1].face$o[4].channel 	represented_price[1] 	0
scalar abilene_cost_network.node[7].face$o[4].channel 	price[7] 	0
scalar abilene_cost_network.node[7].face$o[4].channel 	represented_price[7] 	0
scalar abilene_cost_network.node[10].face$o[4].channel 	price[10] 	0
scalar abilene_cost_network.node[10].face$o[4].channel 	represented_price[10] 	0
scalar abilene_cost_network.node[11].face$o[1].channel 	price[11] 	0
scalar abilene_cost_network.node[11].face$o[1].channel 	represented_price[11] 	0
scalar abilene_cost_network.node[12].face$o[1].channel 	price[12] 	1
scalar abilene_cost_network.node[12].face$o[1].channel 	represented_price[12] 	1
scalar abilene_cost_network.node[13].face$o[1].channel 	price[13] 	10
scalar abilene_cost_network.node[13].face$o[1].channel 	represented_price[13] 	10
scalar abilene_cost_network.statistics 	p_hit 	0.097539990476774
scalar abilene_cost_network.statistics 	interests 	151509.28571429
scalar abilene_cost_network.statistics 	data 	112983.35714286
scalar abilene_cost_network.statistics 	hdistance 	3.5939946291719
scalar abilene_cost_network.statistics 	avg_time 	0.015442088251
scalar abilene_cost_network.statistics 	downloads 	530090
scalar abilene_cost_network.statistics 	total_cost 	786473
scalar abilene_cost_network.statistics 	total_replicas 	100000
scalar abilene_cost_network.statistics 	inner_hit 	0.39189948876606
scalar abilene_cost_network.statistics 	interests_sent 	539375
scalar abilene_cost_network.node[0].core_layer 	interests[0] 	196189
scalar abilene_cost_network.node[0].core_layer 	data[0] 	165532
scalar abilene_cost_network.node[0].core_layer 	repo_int[0] 	322348
scalar abilene_cost_network.node[0].content_store 	p_hit[0] 	0.14050736789524
scalar abilene_cost_network.node[0].content_store 	hits[0] 	27566
scalar abilene_cost_network.node[0].content_store 	misses[0] 	168623
scalar abilene_cost_network.node[0].content_store 	decision_yes[0] 	753
scalar abilene_cost_network.node[0].content_store 	decision_no[0] 	164779
scalar abilene_cost_network.node[0].content_store 	decision_ratio[0] 	0.0045489693835633
scalar abilene_cost_network.node[0].content_store 	correction_factor[0] 	0.0027225701061802
scalar abilene_cost_network.node[0].content_store 	xi[0] 	1
scalar abilene_cost_network.node[1].core_layer 	interests[1] 	217003
scalar abilene_cost_network.node[1].core_layer 	data[1] 	202331
scalar abilene_cost_network.node[1].content_store 	p_hit[1] 	0.067616576729354
scalar abilene_cost_network.node[1].content_store 	hits[1] 	14673
scalar abilene_cost_network.node[1].content_store 	misses[1] 	202330
scalar abilene_cost_network.node[1].content_store 	decision_yes[1] 	1886
scalar abilene_cost_network.node[1].content_store 	decision_no[1] 	200445
scalar abilene_cost_network.node[1].content_store 	decision_ratio[1] 	0.0093213595543935
scalar abilene_cost_network.node[1].content_store 	correction_factor[1] 	0.0027225701061802
scalar abilene_cost_network.node[1].content_store 	xi[1] 	1
scalar abilene_cost_network.node[2].core_layer 	interests[2] 	183594
scalar abilene_cost_network.node[2].core_layer 	data[2] 	172190
scalar abilene_cost_network.node[2].content_store 	p_hit[2] 	0.057529113151846
scalar abilene_cost_network.node[2].content_store 	hits[2] 	10562
scalar abilene_cost_network.node[2].content_store 	misses[2] 	173032
scalar abilene_cost_network.node[2].content_store 	decision_yes[2] 	724
scalar abilene_cost_network.node[2].content_store 	decision_no[2] 	171466
scalar abilene_cost_network.node[2].content_store 	decision_ratio[2] 	0.004204657645624
scalar abilene_cost_network.node[2].content_store 	correction_factor[2] 	0.0027225701061802
scalar abilene_cost_network.node[2].content_store 	xi[2] 	1
scalar abilene_cost_network.node[3].core_layer 	interests[3] 	190817
scalar abilene_cost_network.node[3].core_layer 	data[3] 	140098
scalar abilene_cost_network.node[3].content_store 	p_hit[3] 	0.26580965008359
scalar abilene_cost_network.node[3].content_store 	hits[3] 	50721
scalar abilene_cost_network.node[3].content_store 	misses[3] 	140096
scalar abilene_cost_network.node[3].content_store 	decision_yes[3] 	677
scalar abilene_cost_network.node[3].content_store 	decision_no[3] 	139421
scalar abilene_cost_network.node[3].content_store 	decision_ratio[3] 	0.0048323316535568
scalar abilene_cost_network.node[3].content_store 	correction_factor[3] 	0.0027225701061802
scalar abilene_cost_network.node[3].content_store 	xi[3] 	1
scalar abilene_cost_network.node[4].core_layer 	interests[4] 	122295
scalar abilene_cost_network.node[4].core_layer 	data[4] 	119889
scalar abilene_cost_network.node[4].content_store 	p_hit[4] 	0.019698270575248
scalar abilene_cost_network.node[4].content_store 	hits[4] 	2409
scalar abilene_cost_network.node[4].content_store 	misses[4] 	119886
scalar abilene_cost_network.node[4].content_store 	decision_yes[4] 	686
scalar abilene_cost_network.node[4].content_store 	decision_no[4] 	119203
scalar abilene_cost_network.node[4].content_store 	decision_ratio[4] 	0.0057219594791849
scalar abilene_cost_network.node[4].content_store 	correction_factor[4] 	0.0027225701061802
scalar abilene_cost_network.node[4].content_store 	xi[4] 	1
scalar abilene_cost_network.node[5].core_layer 	interests[5] 	185285
scalar abilene_cost_network.node[5].core_layer 	data[5] 	170841
scalar abilene_cost_network.node[5].content_store 	p_hit[5] 	0.060868391936746
scalar abilene_cost_network.node[5].content_store 	hits[5] 	11278
scalar abilene_cost_network.node[5].content_store 	misses[5] 	174007
scalar abilene_cost_network.node[5].content_store 	decision_yes[5] 	682
scalar abilene_cost_network.node[5].content_store 	decision_no[5] 	170159
scalar abilene_cost_network.node[5].content_store 	decision_ratio[5] 	0.0039920159680639
scalar abilene_cost_network.node[5].content_store 	correction_factor[5] 	0.0027225701061802
scalar abilene_cost_network.node[5].content_store 	xi[5] 	1
scalar abilene_cost_network.node[6].core_layer 	interests[6] 	59204
scalar abilene_cost_network.node[6].core_layer 	data[6] 	52221
scalar abilene_cost_network.node[6].content_store 	p_hit[6] 	0.11796500236471
scalar abilene_cost_network.node[6].content_store 	hits[6] 	6984
scalar abilene_cost_network.node[6].content_store 	misses[6] 	52220
scalar abilene_cost_network.node[6].content_store 	decision_yes[6] 	46
scalar abilene_cost_network.node[6].content_store 	decision_no[6] 	52175
scalar abilene_cost_network.node[6].content_store 	decision_ratio[6] 	0.00088087167997549
scalar abilene_cost_network.node[6].content_store 	correction_factor[6] 	0.0027225701061802
scalar abilene_cost_network.node[6].content_store 	xi[6] 	1
scalar abilene_cost_network.node[7].core_layer 	interests[7] 	128025
scalar abilene_cost_network.node[7].core_layer 	data[7] 	98390
scalar abilene_cost_network.node[7].content_store 	p_hit[7] 	0.23147822690881
scalar abilene_cost_network.node[7].content_store 	hits[7] 	29635
scalar abilene_cost_network.node[7].content_store 	misses[7] 	98390
scalar abilene_cost_network.node[7].content_store 	decision_yes[7] 	217
scalar abilene_cost_network.node[7].content_store 	decision_no[7] 	98173
scalar abilene_cost_network.node[7].content_store 	decision_ratio[7] 	0.0022055086899075
scalar abilene_cost_network.node[7].content_store 	correction_factor[7] 	0.0027225701061802
scalar abilene_cost_network.node[7].content_store 	xi[7] 	1
scalar abilene_cost_network.node[8].core_layer 	interests[8] 	80400
scalar abilene_cost_network.node[8].core_layer 	data[8] 	71678
scalar abilene_cost_network.node[8].content_store 	p_hit[8] 	0.10848258706468
scalar abilene_cost_network.node[8].content_store 	hits[8] 	8722
scalar abilene_cost_network.node[8].content_store 	misses[8] 	71678
scalar abilene_cost_network.node[8].content_store 	decision_yes[8] 	69
scalar abilene_cost_network.node[8].content_store 	decision_no[8] 	71609
scalar abilene_cost_network.node[8].content_store 	decision_ratio[8] 	0.00096263846647507
scalar abilene_cost_network.node[8].content_store 	correction_factor[8] 	0.0027225701061802
scalar abilene_cost_network.node[8].content_store 	xi[8] 	1
scalar abilene_cost_network.node[9].core_layer 	interests[9] 	200068
scalar abilene_cost_network.node[9].core_layer 	data[9] 	166149
scalar abilene_cost_network.node[9].content_store 	p_hit[9] 	0.15440250314893
scalar abilene_cost_network.node[9].content_store 	hits[9] 	30891
scalar abilene_cost_network.node[9].content_store 	misses[9] 	169177
scalar abilene_cost_network.node[9].content_store 	decision_yes[9] 	725
scalar abilene_cost_network.node[9].content_store 	decision_no[9] 	165424
scalar abilene_cost_network.node[9].content_store 	decision_ratio[9] 	0.0043635531962275
scalar abilene_cost_network.node[9].content_store 	correction_factor[9] 	0.0027225701061802
scalar abilene_cost_network.node[9].content_store 	xi[9] 	1
scalar abilene_cost_network.node[10].core_layer 	interests[10] 	235902
scalar abilene_cost_network.node[10].core_layer 	data[10] 	222448
scalar abilene_cost_network.node[10].content_store 	p_hit[10] 	0.057032157421302
scalar abilene_cost_network.node[10].content_store 	hits[10] 	13454
scalar abilene_cost_network.node[10].content_store 	misses[10] 	222448
scalar abilene_cost_network.node[10].content_store 	decision_yes[10] 	666
scalar abilene_cost_network.node[10].content_store 	decision_no[10] 	221782
scalar abilene_cost_network.node[10].content_store 	decision_ratio[10] 	0.0029939581385313
scalar abilene_cost_network.node[10].content_store 	correction_factor[10] 	0.0027225701061802
scalar abilene_cost_network.node[10].content_store 	xi[10] 	1
scalar abilene_cost_network.node[11].core_layer 	interests[11] 	173246
scalar abilene_cost_network.node[11].core_layer 	repo_load[11] 	173246
scalar abilene_cost_network.node[11].core_layer 	data[11] 	0
scalar abilene_cost_network.node[11].content_store 	p_hit[11] 	0
scalar abilene_cost_network.node[11].content_store 	hits[11] 	0
scalar abilene_cost_network.node[11].content_store 	misses[11] 	173246
scalar abilene_cost_network.node[11].content_store 	decision_yes[11] 	0
scalar abilene_cost_network.node[11].content_store 	decision_no[11] 	173246
scalar abilene_cost_network.node[11].content_store 	decision_ratio[11] 	0
scalar abilene_cost_network.node[12].core_layer 	interests[12] 	78283
scalar abilene_cost_network.node[12].core_layer 	repo_load[12] 	78283
scalar abilene_cost_network.node[12].core_layer 	data[12] 	0
scalar abilene_cost_network.node[12].content_store 	p_hit[12] 	0
scalar abilene_cost_network.node[12].content_store 	hits[12] 	0
scalar abilene_cost_network.node[12].content_store 	misses[12] 	78283
scalar abilene_cost_network.node[12].content_store 	decision_yes[12] 	0
scalar abilene_cost_network.node[12].content_store 	decision_no[12] 	78283
scalar abilene_cost_network.node[12].content_store 	decision_ratio[12] 	0
scalar abilene_cost_network.node[13].core_layer 	interests[13] 	70819
scalar abilene_cost_network.node[13].core_layer 	repo_load[13] 	70819
scalar abilene_cost_network.node[13].core_layer 	data[13] 	0
scalar abilene_cost_network.node[13].content_store 	p_hit[13] 	0
scalar abilene_cost_network.node[13].content_store 	hits[13] 	0
scalar abilene_cost_network.node[13].content_store 	misses[13] 	70819
scalar abilene_cost_network.node[13].content_store 	decision_yes[13] 	0
scalar abilene_cost_network.node[13].content_store 	decision_no[13] 	70819
scalar abilene_cost_network.node[13].content_store 	decision_ratio[13] 	0
scalar abilene_cost_network.client[0] 	hdistance[0] 	3.1758052646476
scalar abilene_cost_network.client[0] 	downloads[0] 	176650
scalar abilene_cost_network.client[0] 	avg_time[0] 	0.014035348807
scalar abilene_cost_network.client[0] 	interests_sent[0] 	179741
scalar abilene_cost_network.client[5] 	hdistance[5] 	4.7371371303358
scalar abilene_cost_network.client[5] 	downloads[5] 	176613
scalar abilene_cost_network.client[5] 	avg_time[5] 	0.01966517714
scalar abilene_cost_network.client[5] 	interests_sent[5] 	179779
scalar abilene_cost_network.client[9] 	hdistance[9] 	2.8690414925323
scalar abilene_cost_network.client[9] 	downloads[9] 	176827
scalar abilene_cost_network.client[9] 	avg_time[9] 	0.012625738806
scalar abilene_cost_network.client[9] 	interests_sent[9] 	179855
