version 2
run General-1202-20140502-03:24:52-10114
attr D costprob0.5
attr F nrr
attr R lru
attr a 1
attr configname General
attr csize 1e3
attr ctlg 1e5
attr datetime 20140502-03:24:52
attr experiment General
attr inifile omnetpp.ini
attr iterationvars "$net=three_caches_scenario_3_links, $rep=3, $priceratiovalue=1, $weights=0.2_0.4_0.4, $a=1, $ctlg=1e5, $F=nrr, $ttl=1000, $D=costprob0.5, $xi=1, $R=lru, $csize=1e3"
attr iterationvars2 "$net=three_caches_scenario_3_links, $rep=3, $priceratiovalue=1, $weights=0.2_0.4_0.4, $a=1, $ctlg=1e5, $F=nrr, $ttl=1000, $D=costprob0.5, $xi=1, $R=lru, $csize=1e3, $repetition=0"
attr measurement "$net=three_caches_scenario_3_links, $rep=3, $priceratiovalue=1, $weights=0.2_0.4_0.4, $a=1, $ctlg=1e5, $F=nrr, $ttl=1000, $D=costprob0.5, $xi=1, $R=lru, $csize=1e3"
attr net three_caches_scenario_3_links
attr network networks.${net=three_caches_scenario_3_links}_network
attr priceratiovalue 1
attr processid 10114
attr rep 3
attr repetition 0
attr replication #0
attr resultdir results
attr runnumber 1202
attr seedset 3
attr ttl 1000
attr weights 0.2_0.4_0.4
attr xi 1

scalar . 	a 	1
scalar . 	csize 	1e3
scalar . 	ctlg 	1e5
scalar . 	priceratiovalue 	1
scalar . 	rep 	3
scalar . 	ttl 	1000
scalar . 	xi 	1
scalar three_caches_scenario_3_links_network.content_distribution 	repo-0 	4
scalar three_caches_scenario_3_links_network.content_distribution 	repo-1 	5
scalar three_caches_scenario_3_links_network.content_distribution 	repo-2 	6
scalar three_caches_scenario_3_links_network.content_distribution 	client-0 	0
scalar three_caches_scenario_3_links_network.content_distribution 	repo-0_card 	20144
scalar three_caches_scenario_3_links_network.content_distribution 	repo-1_card 	39732
scalar three_caches_scenario_3_links_network.content_distribution 	repo-2_card 	40124
scalar three_caches_scenario_3_links_network.statistics 	p_hit 	0.15489551612844
scalar three_caches_scenario_3_links_network.statistics 	interests 	62675.428571429
scalar three_caches_scenario_3_links_network.statistics 	data 	36997.428571429
scalar three_caches_scenario_3_links_network.statistics 	hdistance 	1.8346833865566
scalar three_caches_scenario_3_links_network.statistics 	avg_time 	0
scalar three_caches_scenario_3_links_network.statistics 	downloads 	179746
scalar three_caches_scenario_3_links_network.statistics 	total_cost 	70795
scalar three_caches_scenario_3_links_network.statistics 	total_replicas 	100000
scalar three_caches_scenario_3_links_network.statistics 	interests_sent 	179746
scalar three_caches_scenario_3_links_network.node[0].core_layer 	interests[0] 	179746
scalar three_caches_scenario_3_links_network.node[0].core_layer 	data[0] 	147193
scalar three_caches_scenario_3_links_network.node[0].core_layer 	repo_int[0] 	111789
scalar three_caches_scenario_3_links_network.node[0].content_store 	p_hit[0] 	0.1811055600681
scalar three_caches_scenario_3_links_network.node[0].content_store 	hits[0] 	32553
scalar three_caches_scenario_3_links_network.node[0].content_store 	misses[0] 	147193
scalar three_caches_scenario_3_links_network.node[0].content_store 	decision_yes[0] 	44142
scalar three_caches_scenario_3_links_network.node[0].content_store 	decision_no[0] 	103051
scalar three_caches_scenario_3_links_network.node[1].core_layer 	interests[1] 	40994
scalar three_caches_scenario_3_links_network.node[1].core_layer 	data[1] 	40994
scalar three_caches_scenario_3_links_network.node[1].content_store 	p_hit[1] 	0
scalar three_caches_scenario_3_links_network.node[1].content_store 	hits[1] 	0
scalar three_caches_scenario_3_links_network.node[1].content_store 	misses[1] 	40994
scalar three_caches_scenario_3_links_network.node[1].content_store 	decision_yes[1] 	0
scalar three_caches_scenario_3_links_network.node[1].content_store 	decision_no[1] 	40994
scalar three_caches_scenario_3_links_network.node[2].core_layer 	interests[2] 	55502
scalar three_caches_scenario_3_links_network.node[2].core_layer 	data[2] 	35679
scalar three_caches_scenario_3_links_network.node[2].content_store 	p_hit[2] 	0.35715830060178
scalar three_caches_scenario_3_links_network.node[2].content_store 	hits[2] 	19823
scalar three_caches_scenario_3_links_network.node[2].content_store 	misses[2] 	35679
scalar three_caches_scenario_3_links_network.node[2].content_store 	decision_yes[2] 	22351
scalar three_caches_scenario_3_links_network.node[2].content_store 	decision_no[2] 	13328
scalar three_caches_scenario_3_links_network.node[3].core_layer 	interests[3] 	50697
scalar three_caches_scenario_3_links_network.node[3].core_layer 	data[3] 	35116
scalar three_caches_scenario_3_links_network.node[3].content_store 	p_hit[3] 	0.30733573978736
scalar three_caches_scenario_3_links_network.node[3].content_store 	hits[3] 	15581
scalar three_caches_scenario_3_links_network.node[3].content_store 	misses[3] 	35116
scalar three_caches_scenario_3_links_network.node[3].content_store 	decision_yes[3] 	21918
scalar three_caches_scenario_3_links_network.node[3].content_store 	decision_no[3] 	13198
scalar three_caches_scenario_3_links_network.node[4].core_layer 	interests[4] 	40994
scalar three_caches_scenario_3_links_network.node[4].core_layer 	repo_load[4] 	40994
scalar three_caches_scenario_3_links_network.node[4].core_layer 	data[4] 	0
scalar three_caches_scenario_3_links_network.node[4].content_store 	p_hit[4] 	0
scalar three_caches_scenario_3_links_network.node[4].content_store 	hits[4] 	0
scalar three_caches_scenario_3_links_network.node[4].content_store 	misses[4] 	40994
scalar three_caches_scenario_3_links_network.node[4].content_store 	decision_yes[4] 	0
scalar three_caches_scenario_3_links_network.node[4].content_store 	decision_no[4] 	40994
scalar three_caches_scenario_3_links_network.node[5].core_layer 	interests[5] 	35679
scalar three_caches_scenario_3_links_network.node[5].core_layer 	repo_load[5] 	35679
scalar three_caches_scenario_3_links_network.node[5].core_layer 	data[5] 	0
scalar three_caches_scenario_3_links_network.node[5].content_store 	p_hit[5] 	0
scalar three_caches_scenario_3_links_network.node[5].content_store 	hits[5] 	0
scalar three_caches_scenario_3_links_network.node[5].content_store 	misses[5] 	35679
scalar three_caches_scenario_3_links_network.node[5].content_store 	decision_yes[5] 	0
scalar three_caches_scenario_3_links_network.node[5].content_store 	decision_no[5] 	35679
scalar three_caches_scenario_3_links_network.node[6].core_layer 	interests[6] 	35116
scalar three_caches_scenario_3_links_network.node[6].core_layer 	repo_load[6] 	35116
scalar three_caches_scenario_3_links_network.node[6].core_layer 	data[6] 	0
scalar three_caches_scenario_3_links_network.node[6].content_store 	p_hit[6] 	0
scalar three_caches_scenario_3_links_network.node[6].content_store 	hits[6] 	0
scalar three_caches_scenario_3_links_network.node[6].content_store 	misses[6] 	35116
scalar three_caches_scenario_3_links_network.node[6].content_store 	decision_yes[6] 	0
scalar three_caches_scenario_3_links_network.node[6].content_store 	decision_no[6] 	35116
scalar three_caches_scenario_3_links_network.client[0] 	hdistance[0] 	1.8346833865566
scalar three_caches_scenario_3_links_network.client[0] 	downloads[0] 	179746
scalar three_caches_scenario_3_links_network.client[0] 	avg_time[0] 	0
scalar three_caches_scenario_3_links_network.client[0] 	interests_sent[0] 	179746
