version 2
run General-2645-20140502-06:08:27-11601
attr D fix0.01
attr F nrr
attr R lru
attr a 1
attr configname General
attr csize 1e3
attr ctlg 1e5
attr datetime 20140502-06:08:27
attr experiment General
attr inifile omnetpp.ini
attr iterationvars "$net=three_caches_scenario_3_links, $rep=5, $priceratiovalue=5, $weights=0.2_0.4_0.4, $a=1, $ctlg=1e5, $F=nrr, $ttl=1000, $D=fix0.01, $xi=1, $R=lru, $csize=1e3"
attr iterationvars2 "$net=three_caches_scenario_3_links, $rep=5, $priceratiovalue=5, $weights=0.2_0.4_0.4, $a=1, $ctlg=1e5, $F=nrr, $ttl=1000, $D=fix0.01, $xi=1, $R=lru, $csize=1e3, $repetition=0"
attr measurement "$net=three_caches_scenario_3_links, $rep=5, $priceratiovalue=5, $weights=0.2_0.4_0.4, $a=1, $ctlg=1e5, $F=nrr, $ttl=1000, $D=fix0.01, $xi=1, $R=lru, $csize=1e3"
attr net three_caches_scenario_3_links
attr network networks.${net=three_caches_scenario_3_links}_network
attr priceratiovalue 5
attr processid 11601
attr rep 5
attr repetition 0
attr replication #0
attr resultdir results
attr runnumber 2645
attr seedset 5
attr ttl 1000
attr weights 0.2_0.4_0.4
attr xi 1

scalar . 	a 	1
scalar . 	csize 	1e3
scalar . 	ctlg 	1e5
scalar . 	priceratiovalue 	5
scalar . 	rep 	5
scalar . 	ttl 	1000
scalar . 	xi 	1
scalar three_caches_scenario_3_links_network.content_distribution 	repo-0 	4
scalar three_caches_scenario_3_links_network.content_distribution 	repo-1 	5
scalar three_caches_scenario_3_links_network.content_distribution 	repo-2 	6
scalar three_caches_scenario_3_links_network.content_distribution 	client-0 	0
scalar three_caches_scenario_3_links_network.content_distribution 	repo-0_card 	19937
scalar three_caches_scenario_3_links_network.content_distribution 	repo-1_card 	40032
scalar three_caches_scenario_3_links_network.content_distribution 	repo-2_card 	40031
scalar three_caches_scenario_3_links_network.statistics 	p_hit 	0.28008260500793
scalar three_caches_scenario_3_links_network.statistics 	interests 	50360.142857143
scalar three_caches_scenario_3_links_network.statistics 	data 	24574.714285714
scalar three_caches_scenario_3_links_network.statistics 	hdistance 	1.3080477346009
scalar three_caches_scenario_3_links_network.statistics 	avg_time 	0
scalar three_caches_scenario_3_links_network.statistics 	downloads 	180498
scalar three_caches_scenario_3_links_network.statistics 	total_cost 	192617
scalar three_caches_scenario_3_links_network.statistics 	total_replicas 	100000
scalar three_caches_scenario_3_links_network.statistics 	interests_sent 	180498
scalar three_caches_scenario_3_links_network.node[0].core_layer 	interests[0] 	180498
scalar three_caches_scenario_3_links_network.node[0].core_layer 	data[0] 	90260
scalar three_caches_scenario_3_links_network.node[0].core_layer 	repo_int[0] 	81763
scalar three_caches_scenario_3_links_network.node[0].content_store 	p_hit[0] 	0.49993905749648
scalar three_caches_scenario_3_links_network.node[0].content_store 	hits[0] 	90238
scalar three_caches_scenario_3_links_network.node[0].content_store 	misses[0] 	90260
scalar three_caches_scenario_3_links_network.node[0].content_store 	decision_yes[0] 	966
scalar three_caches_scenario_3_links_network.node[0].content_store 	decision_no[0] 	89294
scalar three_caches_scenario_3_links_network.node[1].core_layer 	interests[1] 	17686
scalar three_caches_scenario_3_links_network.node[1].core_layer 	data[1] 	17686
scalar three_caches_scenario_3_links_network.node[1].content_store 	p_hit[1] 	0
scalar three_caches_scenario_3_links_network.node[1].content_store 	hits[1] 	0
scalar three_caches_scenario_3_links_network.node[1].content_store 	misses[1] 	17686
scalar three_caches_scenario_3_links_network.node[1].content_store 	decision_yes[1] 	0
scalar three_caches_scenario_3_links_network.node[1].content_store 	decision_no[1] 	17686
scalar three_caches_scenario_3_links_network.node[2].core_layer 	interests[2] 	36169
scalar three_caches_scenario_3_links_network.node[2].core_layer 	data[2] 	31942
scalar three_caches_scenario_3_links_network.node[2].content_store 	p_hit[2] 	0.11686803616357
scalar three_caches_scenario_3_links_network.node[2].content_store 	hits[2] 	4227
scalar three_caches_scenario_3_links_network.node[2].content_store 	misses[2] 	31942
scalar three_caches_scenario_3_links_network.node[2].content_store 	decision_yes[2] 	325
scalar three_caches_scenario_3_links_network.node[2].content_store 	decision_no[2] 	31617
scalar three_caches_scenario_3_links_network.node[3].core_layer 	interests[3] 	36405
scalar three_caches_scenario_3_links_network.node[3].core_layer 	data[3] 	32135
scalar three_caches_scenario_3_links_network.node[3].content_store 	p_hit[3] 	0.11729158082681
scalar three_caches_scenario_3_links_network.node[3].content_store 	hits[3] 	4270
scalar three_caches_scenario_3_links_network.node[3].content_store 	misses[3] 	32135
scalar three_caches_scenario_3_links_network.node[3].content_store 	decision_yes[3] 	325
scalar three_caches_scenario_3_links_network.node[3].content_store 	decision_no[3] 	31810
scalar three_caches_scenario_3_links_network.node[4].core_layer 	interests[4] 	17686
scalar three_caches_scenario_3_links_network.node[4].core_layer 	repo_load[4] 	17686
scalar three_caches_scenario_3_links_network.node[4].core_layer 	data[4] 	0
scalar three_caches_scenario_3_links_network.node[4].content_store 	p_hit[4] 	0
scalar three_caches_scenario_3_links_network.node[4].content_store 	hits[4] 	0
scalar three_caches_scenario_3_links_network.node[4].content_store 	misses[4] 	17686
scalar three_caches_scenario_3_links_network.node[4].content_store 	decision_yes[4] 	0
scalar three_caches_scenario_3_links_network.node[4].content_store 	decision_no[4] 	17686
scalar three_caches_scenario_3_links_network.node[5].core_layer 	interests[5] 	31942
scalar three_caches_scenario_3_links_network.node[5].core_layer 	repo_load[5] 	31942
scalar three_caches_scenario_3_links_network.node[5].core_layer 	data[5] 	0
scalar three_caches_scenario_3_links_network.node[5].content_store 	p_hit[5] 	0
scalar three_caches_scenario_3_links_network.node[5].content_store 	hits[5] 	0
scalar three_caches_scenario_3_links_network.node[5].content_store 	misses[5] 	31942
scalar three_caches_scenario_3_links_network.node[5].content_store 	decision_yes[5] 	0
scalar three_caches_scenario_3_links_network.node[5].content_store 	decision_no[5] 	31942
scalar three_caches_scenario_3_links_network.node[6].core_layer 	interests[6] 	32135
scalar three_caches_scenario_3_links_network.node[6].core_layer 	repo_load[6] 	32135
scalar three_caches_scenario_3_links_network.node[6].core_layer 	data[6] 	0
scalar three_caches_scenario_3_links_network.node[6].content_store 	p_hit[6] 	0
scalar three_caches_scenario_3_links_network.node[6].content_store 	hits[6] 	0
scalar three_caches_scenario_3_links_network.node[6].content_store 	misses[6] 	32135
scalar three_caches_scenario_3_links_network.node[6].content_store 	decision_yes[6] 	0
scalar three_caches_scenario_3_links_network.node[6].content_store 	decision_no[6] 	32135
scalar three_caches_scenario_3_links_network.client[0] 	hdistance[0] 	1.3080477346009
scalar three_caches_scenario_3_links_network.client[0] 	downloads[0] 	180498
scalar three_caches_scenario_3_links_network.client[0] 	avg_time[0] 	0
scalar three_caches_scenario_3_links_network.client[0] 	interests_sent[0] 	180498
