version 2
run General-0-20140502-11:28:16-835
attr D costprob0.5
attr F nrr
attr R lru
attr a 1
attr configname General
attr csize 1e3
attr ctlg 1e5
attr datetime 20140502-11:28:16
attr experiment General
attr inifile omnetpp.ini
attr iterationvars "$net=one_cache_scenario_3_links, $rep=1, $priceratiovalue=10, $weights=0.333_0.333_0.334, $a=1, $ctlg=1e5, $F=nrr, $ttl=1000, $D=costprob0.5, $xi=1, $R=lru, $csize=1e3"
attr iterationvars2 "$net=one_cache_scenario_3_links, $rep=1, $priceratiovalue=10, $weights=0.333_0.333_0.334, $a=1, $ctlg=1e5, $F=nrr, $ttl=1000, $D=costprob0.5, $xi=1, $R=lru, $csize=1e3, $repetition=0"
attr measurement "$net=one_cache_scenario_3_links, $rep=1, $priceratiovalue=10, $weights=0.333_0.333_0.334, $a=1, $ctlg=1e5, $F=nrr, $ttl=1000, $D=costprob0.5, $xi=1, $R=lru, $csize=1e3"
attr net one_cache_scenario_3_links
attr network networks.${net=one_cache_scenario_3_links}_network
attr priceratiovalue 10
attr processid 835
attr rep 1
attr repetition 0
attr replication #0
attr resultdir results
attr runnumber 0
attr seedset 1
attr ttl 1000
attr weights 0.333_0.333_0.334
attr xi 1

scalar . 	a 	1
scalar . 	csize 	1e3
scalar . 	ctlg 	1e5
scalar . 	priceratiovalue 	10
scalar . 	rep 	1
scalar . 	ttl 	1000
scalar . 	xi 	1
scalar one_cache_scenario_3_links_network.content_distribution 	repo-0 	4
scalar one_cache_scenario_3_links_network.content_distribution 	repo-1 	5
scalar one_cache_scenario_3_links_network.content_distribution 	repo-2 	6
scalar one_cache_scenario_3_links_network.content_distribution 	client-0 	0
scalar one_cache_scenario_3_links_network.content_distribution 	repo-0_card 	33352
scalar one_cache_scenario_3_links_network.content_distribution 	repo-1_card 	33263
scalar one_cache_scenario_3_links_network.content_distribution 	repo-2_card 	33385
scalar one_cache_scenario_3_links_network.statistics 	p_hit 	0.15502106997565
scalar one_cache_scenario_3_links_network.statistics 	interests 	58783.714285714
scalar one_cache_scenario_3_links_network.statistics 	data 	33114
scalar one_cache_scenario_3_links_network.statistics 	hdistance 	1.2900026712969
scalar one_cache_scenario_3_links_network.statistics 	avg_time 	0
scalar one_cache_scenario_3_links_network.statistics 	downloads 	179688
scalar one_cache_scenario_3_links_network.statistics 	total_cost 	273259
scalar one_cache_scenario_3_links_network.statistics 	total_replicas 	100000
scalar one_cache_scenario_3_links_network.statistics 	interests_sent 	179688
scalar one_cache_scenario_3_links_network.node[0].core_layer 	interests[0] 	179688
scalar one_cache_scenario_3_links_network.node[0].core_layer 	data[0] 	115899
scalar one_cache_scenario_3_links_network.node[0].core_layer 	repo_int[0] 	115899
scalar one_cache_scenario_3_links_network.node[0].content_store 	p_hit[0] 	0.35499866435154
scalar one_cache_scenario_3_links_network.node[0].content_store 	hits[0] 	63789
scalar one_cache_scenario_3_links_network.node[0].content_store 	misses[0] 	115899
scalar one_cache_scenario_3_links_network.node[0].content_store 	decision_yes[0] 	28459
scalar one_cache_scenario_3_links_network.node[0].content_store 	decision_no[0] 	87440
scalar one_cache_scenario_3_links_network.node[1].core_layer 	interests[1] 	61799
scalar one_cache_scenario_3_links_network.node[1].core_layer 	data[1] 	61799
scalar one_cache_scenario_3_links_network.node[1].content_store 	p_hit[1] 	0
scalar one_cache_scenario_3_links_network.node[1].content_store 	hits[1] 	0
scalar one_cache_scenario_3_links_network.node[1].content_store 	misses[1] 	61799
scalar one_cache_scenario_3_links_network.node[1].content_store 	decision_yes[1] 	0
scalar one_cache_scenario_3_links_network.node[1].content_store 	decision_no[1] 	61799
scalar one_cache_scenario_3_links_network.node[2].core_layer 	interests[2] 	29749
scalar one_cache_scenario_3_links_network.node[2].core_layer 	data[2] 	29749
scalar one_cache_scenario_3_links_network.node[2].content_store 	p_hit[2] 	0
scalar one_cache_scenario_3_links_network.node[2].content_store 	hits[2] 	0
scalar one_cache_scenario_3_links_network.node[2].content_store 	misses[2] 	29749
scalar one_cache_scenario_3_links_network.node[2].content_store 	decision_yes[2] 	0
scalar one_cache_scenario_3_links_network.node[2].content_store 	decision_no[2] 	29749
scalar one_cache_scenario_3_links_network.node[3].core_layer 	interests[3] 	24351
scalar one_cache_scenario_3_links_network.node[3].core_layer 	data[3] 	24351
scalar one_cache_scenario_3_links_network.node[3].content_store 	p_hit[3] 	0
scalar one_cache_scenario_3_links_network.node[3].content_store 	hits[3] 	0
scalar one_cache_scenario_3_links_network.node[3].content_store 	misses[3] 	24351
scalar one_cache_scenario_3_links_network.node[3].content_store 	decision_yes[3] 	0
scalar one_cache_scenario_3_links_network.node[3].content_store 	decision_no[3] 	24351
scalar one_cache_scenario_3_links_network.node[4].core_layer 	interests[4] 	61799
scalar one_cache_scenario_3_links_network.node[4].core_layer 	repo_load[4] 	61799
scalar one_cache_scenario_3_links_network.node[4].core_layer 	data[4] 	0
scalar one_cache_scenario_3_links_network.node[4].content_store 	p_hit[4] 	0
scalar one_cache_scenario_3_links_network.node[4].content_store 	hits[4] 	0
scalar one_cache_scenario_3_links_network.node[4].content_store 	misses[4] 	61799
scalar one_cache_scenario_3_links_network.node[4].content_store 	decision_yes[4] 	0
scalar one_cache_scenario_3_links_network.node[4].content_store 	decision_no[4] 	61799
scalar one_cache_scenario_3_links_network.node[5].core_layer 	interests[5] 	29749
scalar one_cache_scenario_3_links_network.node[5].core_layer 	repo_load[5] 	29749
scalar one_cache_scenario_3_links_network.node[5].core_layer 	data[5] 	0
scalar one_cache_scenario_3_links_network.node[5].content_store 	p_hit[5] 	0
scalar one_cache_scenario_3_links_network.node[5].content_store 	hits[5] 	0
scalar one_cache_scenario_3_links_network.node[5].content_store 	misses[5] 	29749
scalar one_cache_scenario_3_links_network.node[5].content_store 	decision_yes[5] 	0
scalar one_cache_scenario_3_links_network.node[5].content_store 	decision_no[5] 	29749
scalar one_cache_scenario_3_links_network.node[6].core_layer 	interests[6] 	24351
scalar one_cache_scenario_3_links_network.node[6].core_layer 	repo_load[6] 	24351
scalar one_cache_scenario_3_links_network.node[6].core_layer 	data[6] 	0
scalar one_cache_scenario_3_links_network.node[6].content_store 	p_hit[6] 	0
scalar one_cache_scenario_3_links_network.node[6].content_store 	hits[6] 	0
scalar one_cache_scenario_3_links_network.node[6].content_store 	misses[6] 	24351
scalar one_cache_scenario_3_links_network.node[6].content_store 	decision_yes[6] 	0
scalar one_cache_scenario_3_links_network.node[6].content_store 	decision_no[6] 	24351
scalar one_cache_scenario_3_links_network.client[0] 	hdistance[0] 	1.2900026712969
scalar one_cache_scenario_3_links_network.client[0] 	downloads[0] 	179688
scalar one_cache_scenario_3_links_network.client[0] 	avg_time[0] 	0
scalar one_cache_scenario_3_links_network.client[0] 	interests_sent[0] 	179688
