version 2
run General-95-20140419-16:30:57-7984
attr D costprob0.01
attr F nrr
attr R lru
attr a 1
attr configname General
attr csize 10
attr ctlg 10^8
attr datetime 20140419-16:30:57
attr experiment General
attr inifile omnetpp.ini
attr iterationvars "$net=simple_scenario, $rep=1, $priceratiovalue=5, $a=1, $ctlg=10^8, $F=nrr, $ttl=1000, $D=costprob0.01, $R=lru, $csize=10"
attr iterationvars2 "$net=simple_scenario, $rep=1, $priceratiovalue=5, $a=1, $ctlg=10^8, $F=nrr, $ttl=1000, $D=costprob0.01, $R=lru, $csize=10, $repetition=0"
attr measurement "$net=simple_scenario, $rep=1, $priceratiovalue=5, $a=1, $ctlg=10^8, $F=nrr, $ttl=1000, $D=costprob0.01, $R=lru, $csize=10"
attr net simple_scenario
attr network networks.${net=simple_scenario}_network
attr priceratiovalue 5
attr processid 7984
attr rep 1
attr repetition 0
attr replication #0
attr resultdir results
attr runnumber 95
attr seedset 1
attr ttl 1000

scalar . 	a 	1
scalar . 	csize 	10
scalar . 	priceratiovalue 	5
scalar . 	rep 	1
scalar . 	ttl 	1000
scalar simple_scenario_network.content_distribution 	repo-0 	3
scalar simple_scenario_network.content_distribution 	repo-1 	4
scalar simple_scenario_network.content_distribution 	client-0 	0
scalar simple_scenario_network.content_distribution 	repo-0_card 	50003719
scalar simple_scenario_network.content_distribution 	repo-1_card 	49996281
scalar simple_scenario_network.statistics 	p_hit 	0.062631291185865
scalar simple_scenario_network.statistics 	interests 	97302.8
scalar simple_scenario_network.statistics 	data 	61498
scalar simple_scenario_network.statistics 	hdistance 	2.5473847081955
scalar simple_scenario_network.statistics 	avg_time 	0.001999076149
scalar simple_scenario_network.statistics 	downloads 	179024
scalar simple_scenario_network.statistics 	total_cost 	74167
scalar simple_scenario_network.node[0].core_layer 	interests[0] 	179024
scalar simple_scenario_network.node[0].core_layer 	data[0] 	158937
scalar simple_scenario_network.node[0].core_layer 	repo_int[0] 	148553
scalar simple_scenario_network.node[0].content_store 	p_hit[0] 	0.11220283313969
scalar simple_scenario_network.node[0].content_store 	hits[0] 	20087
scalar simple_scenario_network.node[0].content_store 	misses[0] 	158937
scalar simple_scenario_network.node[1].core_layer 	interests[1] 	79557
scalar simple_scenario_network.node[1].core_layer 	data[1] 	74439
scalar simple_scenario_network.node[1].content_store 	p_hit[1] 	0.064331234209435
scalar simple_scenario_network.node[1].content_store 	hits[1] 	5118
scalar simple_scenario_network.node[1].content_store 	misses[1] 	74439
scalar simple_scenario_network.node[2].core_layer 	interests[2] 	79380
scalar simple_scenario_network.node[2].core_layer 	data[2] 	74114
scalar simple_scenario_network.node[2].content_store 	p_hit[2] 	0.06633912824389
scalar simple_scenario_network.node[2].content_store 	hits[2] 	5266
scalar simple_scenario_network.node[2].content_store 	misses[2] 	74114
scalar simple_scenario_network.node[3].core_layer 	interests[3] 	74439
scalar simple_scenario_network.node[3].core_layer 	repo_load[3] 	74439
scalar simple_scenario_network.node[3].core_layer 	data[3] 	0
scalar simple_scenario_network.node[3].content_store 	p_hit[3] 	0
scalar simple_scenario_network.node[3].content_store 	hits[3] 	0
scalar simple_scenario_network.node[3].content_store 	misses[3] 	74439
scalar simple_scenario_network.node[4].core_layer 	interests[4] 	74114
scalar simple_scenario_network.node[4].core_layer 	repo_load[4] 	74114
scalar simple_scenario_network.node[4].core_layer 	data[4] 	0
scalar simple_scenario_network.node[4].content_store 	p_hit[4] 	0
scalar simple_scenario_network.node[4].content_store 	hits[4] 	0
scalar simple_scenario_network.node[4].content_store 	misses[4] 	74114
scalar simple_scenario_network.client[0] 	hdistance[0] 	2.5473847081955
scalar simple_scenario_network.client[0] 	downloads[0] 	179024
scalar simple_scenario_network.client[0] 	avg_time[0] 	0.001999076149
