version 2
run General-3-20150731-18:11:45-8642
attr C 1e4
attr D fix0.001
attr F spr
attr R lru_repr
attr a 1
attr brates 0.3_0.7_1.5_2.5_3.5
attr configname General
attr ctlg 1e6
attr datetime 20150731-18:11:45
attr experiment General
attr inifile omnetpp.ini
attr iterationvars "$net=abilene_nodelay, $rep=0, $lambda=100, $a=1, $ctlg=1e6, $brates=0.3_0.7_1.5_2.5_3.5, $F=spr, $ttl=1000, $D=fix0.001, $R=lru_repr, $proactiveprob=0.001, $C=1e4, $window=60, $variance=0.05, $mytime=1800000"
attr iterationvars2 "$net=abilene_nodelay, $rep=0, $lambda=100, $a=1, $ctlg=1e6, $brates=0.3_0.7_1.5_2.5_3.5, $F=spr, $ttl=1000, $D=fix0.001, $R=lru_repr, $proactiveprob=0.001, $C=1e4, $window=60, $variance=0.05, $mytime=1800000, $repetition=0"
attr lambda 100
attr measurement "$net=abilene_nodelay, $rep=0, $lambda=100, $a=1, $ctlg=1e6, $brates=0.3_0.7_1.5_2.5_3.5, $F=spr, $ttl=1000, $D=fix0.001, $R=lru_repr, $proactiveprob=0.001, $C=1e4, $window=60, $variance=0.05, $mytime=1800000"
attr mytime 1800000
attr net abilene_nodelay
attr network networks.${net=abilene_nodelay}_network
attr proactiveprob 0.001
attr processid 8642
attr rep 0
attr repetition 0
attr replication #0
attr resultdir results
attr runnumber 3
attr seedset 0
attr ttl 1000
attr variance 0.05
attr window 60

scalar . 	C 	1e4
scalar . 	a 	1
scalar . 	ctlg 	1e6
scalar . 	lambda 	100
scalar . 	mytime 	1800000
scalar . 	proactiveprob 	0.001
scalar . 	rep 	0
scalar . 	ttl 	1000
scalar . 	variance 	0.05
scalar . 	window 	60
scalar abilene_nodelay_network.content_distribution 	repo-0 	5
scalar abilene_nodelay_network.content_distribution 	client-0 	8
scalar abilene_nodelay_network.content_distribution 	repo-0_card 	1000000
scalar abilene_nodelay_network.content_distribution 	repo-0_price 	0
scalar abilene_nodelay_network.statistics 	stabilization_time 	36060
scalar abilene_nodelay_network.statistics 	p_hit 	0.40227959889455
scalar abilene_nodelay_network.statistics 	interests 	30441344.181818
scalar abilene_nodelay_network.statistics 	data 	14069234
scalar abilene_nodelay_network.statistics 	hdistance 	1.1098907328608
scalar abilene_nodelay_network.statistics 	avg_time 	0
scalar abilene_nodelay_network.statistics 	downloads 	179977715
scalar abilene_nodelay_network.statistics 	total_cost 	0
scalar abilene_nodelay_network.statistics 	total_replicas 	1000000
scalar abilene_nodelay_network.statistics 	"representations_downloaded 0.786428:0.0731734:0.0260233:0.0102289:0.104146:" 	0
scalar abilene_nodelay_network.statistics 	"slots_per_representation 100:233:500:833:1167:" 	0
scalar abilene_nodelay_network.statistics 	inner_hit 	0.74781342790134
scalar abilene_nodelay_network.statistics 	execution_time 	5973
scalar abilene_nodelay_network.node[0].core_layer 	interests[0] 	0
scalar abilene_nodelay_network.node[0].core_layer 	data[0] 	0
scalar abilene_nodelay_network.node[0].core_layer 	slots_sent[face$o[1]->client[0]] 	0
scalar abilene_nodelay_network.node[0].core_layer 	slots_sent[face$o[2]->node[1]] 	0
scalar abilene_nodelay_network.node[0].core_layer 	slots_sent[face$o[3]->node[10]] 	0
scalar abilene_nodelay_network.node[0].content_store 	p_hit[0] 	-nan
scalar abilene_nodelay_network.node[0].content_store 	hits[0] 	0
scalar abilene_nodelay_network.node[0].content_store 	misses[0] 	0
scalar abilene_nodelay_network.node[0].content_store 	decision_yes[0] 	0
scalar abilene_nodelay_network.node[0].content_store 	decision_no[0] 	0
scalar abilene_nodelay_network.node[0].content_store 	decision_ratio[0] 	0
scalar abilene_nodelay_network.node[0].content_store 	"representation_breakdown[0] 0:0:0:0:0:" 	0
scalar abilene_nodelay_network.node[1].core_layer 	interests[1] 	0
scalar abilene_nodelay_network.node[1].core_layer 	data[1] 	0
scalar abilene_nodelay_network.node[1].core_layer 	slots_sent[face$o[1]->client[1]] 	0
scalar abilene_nodelay_network.node[1].core_layer 	slots_sent[face$o[2]->node[0]] 	0
scalar abilene_nodelay_network.node[1].core_layer 	slots_sent[face$o[3]->node[10]] 	0
scalar abilene_nodelay_network.node[1].core_layer 	slots_sent[face$o[4]->node[2]] 	0
scalar abilene_nodelay_network.node[1].content_store 	p_hit[1] 	-nan
scalar abilene_nodelay_network.node[1].content_store 	hits[1] 	0
scalar abilene_nodelay_network.node[1].content_store 	misses[1] 	0
scalar abilene_nodelay_network.node[1].content_store 	decision_yes[1] 	0
scalar abilene_nodelay_network.node[1].content_store 	decision_no[1] 	0
scalar abilene_nodelay_network.node[1].content_store 	decision_ratio[1] 	0
scalar abilene_nodelay_network.node[1].content_store 	"representation_breakdown[1] 0:0:0:0:0:" 	0
scalar abilene_nodelay_network.node[2].core_layer 	interests[2] 	0
scalar abilene_nodelay_network.node[2].core_layer 	data[2] 	0
scalar abilene_nodelay_network.node[2].core_layer 	slots_sent[face$o[1]->client[2]] 	0
scalar abilene_nodelay_network.node[2].core_layer 	slots_sent[face$o[2]->node[1]] 	0
scalar abilene_nodelay_network.node[2].core_layer 	slots_sent[face$o[3]->node[3]] 	0
scalar abilene_nodelay_network.node[2].core_layer 	slots_sent[face$o[4]->node[8]] 	0
scalar abilene_nodelay_network.node[2].content_store 	p_hit[2] 	-nan
scalar abilene_nodelay_network.node[2].content_store 	hits[2] 	0
scalar abilene_nodelay_network.node[2].content_store 	misses[2] 	0
scalar abilene_nodelay_network.node[2].content_store 	decision_yes[2] 	0
scalar abilene_nodelay_network.node[2].content_store 	decision_no[2] 	0
scalar abilene_nodelay_network.node[2].content_store 	decision_ratio[2] 	0
scalar abilene_nodelay_network.node[2].content_store 	"representation_breakdown[2] 0:0:0:0:0:" 	0
scalar abilene_nodelay_network.node[3].core_layer 	interests[3] 	0
scalar abilene_nodelay_network.node[3].core_layer 	data[3] 	0
scalar abilene_nodelay_network.node[3].core_layer 	slots_sent[face$o[1]->client[3]] 	0
scalar abilene_nodelay_network.node[3].core_layer 	slots_sent[face$o[2]->node[2]] 	0
scalar abilene_nodelay_network.node[3].core_layer 	slots_sent[face$o[3]->node[4]] 	0
scalar abilene_nodelay_network.node[3].core_layer 	slots_sent[face$o[4]->node[7]] 	0
scalar abilene_nodelay_network.node[3].content_store 	p_hit[3] 	-nan
scalar abilene_nodelay_network.node[3].content_store 	hits[3] 	0
scalar abilene_nodelay_network.node[3].content_store 	misses[3] 	0
scalar abilene_nodelay_network.node[3].content_store 	decision_yes[3] 	0
scalar abilene_nodelay_network.node[3].content_store 	decision_no[3] 	0
scalar abilene_nodelay_network.node[3].content_store 	decision_ratio[3] 	0
scalar abilene_nodelay_network.node[3].content_store 	"representation_breakdown[3] 0:0:0:0:0:" 	0
scalar abilene_nodelay_network.node[4].core_layer 	interests[4] 	0
scalar abilene_nodelay_network.node[4].core_layer 	data[4] 	0
scalar abilene_nodelay_network.node[4].core_layer 	slots_sent[face$o[1]->client[4]] 	0
scalar abilene_nodelay_network.node[4].core_layer 	slots_sent[face$o[2]->node[3]] 	0
scalar abilene_nodelay_network.node[4].core_layer 	slots_sent[face$o[3]->node[5]] 	0
scalar abilene_nodelay_network.node[4].content_store 	p_hit[4] 	-nan
scalar abilene_nodelay_network.node[4].content_store 	hits[4] 	0
scalar abilene_nodelay_network.node[4].content_store 	misses[4] 	0
scalar abilene_nodelay_network.node[4].content_store 	decision_yes[4] 	0
scalar abilene_nodelay_network.node[4].content_store 	decision_no[4] 	0
scalar abilene_nodelay_network.node[4].content_store 	decision_ratio[4] 	0
scalar abilene_nodelay_network.node[4].content_store 	"representation_breakdown[4] 0:0:0:0:0:" 	0
scalar abilene_nodelay_network.node[5].core_layer 	interests[5] 	45387963
scalar abilene_nodelay_network.node[5].core_layer 	repo_load[5] 	45387963
scalar abilene_nodelay_network.node[5].core_layer 	data[5] 	0
scalar abilene_nodelay_network.node[5].core_layer 	slots_sent[face$o[1]->client[5]] 	0
scalar abilene_nodelay_network.node[5].core_layer 	slots_sent[face$o[2]->node[4]] 	0
scalar abilene_nodelay_network.node[5].core_layer 	slots_sent[face$o[3]->node[6]] 	4556083112
scalar abilene_nodelay_network.node[5].content_store 	p_hit[5] 	0
scalar abilene_nodelay_network.node[5].content_store 	hits[5] 	0
scalar abilene_nodelay_network.node[5].content_store 	misses[5] 	45387963
scalar abilene_nodelay_network.node[5].content_store 	decision_yes[5] 	0
scalar abilene_nodelay_network.node[5].content_store 	decision_no[5] 	45387963
scalar abilene_nodelay_network.node[5].content_store 	decision_ratio[5] 	0
scalar abilene_nodelay_network.node[5].content_store 	"representation_breakdown[5] 0:0:0:0:0:" 	0
scalar abilene_nodelay_network.node[6].core_layer 	interests[6] 	50406438
scalar abilene_nodelay_network.node[6].core_layer 	data[6] 	45387963
scalar abilene_nodelay_network.node[6].core_layer 	slots_sent[face$o[1]->client[6]] 	0
scalar abilene_nodelay_network.node[6].core_layer 	slots_sent[face$o[2]->node[5]] 	0
scalar abilene_nodelay_network.node[6].core_layer 	slots_sent[face$o[3]->node[7]] 	5058540568
scalar abilene_nodelay_network.node[6].content_store 	p_hit[6] 	0.09956019903648
scalar abilene_nodelay_network.node[6].content_store 	hits[6] 	5018475
scalar abilene_nodelay_network.node[6].content_store 	misses[6] 	45387963
scalar abilene_nodelay_network.node[6].content_store 	decision_yes[6] 	45450
scalar abilene_nodelay_network.node[6].content_store 	decision_no[6] 	45342513
scalar abilene_nodelay_network.node[6].content_store 	decision_ratio[6] 	0.0010013668161314
scalar abilene_nodelay_network.node[6].content_store 	"representation_breakdown[6] 47257:73:5:1:1:" 	0
scalar abilene_nodelay_network.node[6].proactive_component 	hdistance[6].proactive_component 	2
scalar abilene_nodelay_network.node[6].proactive_component 	downloads[6].proactive_component 	5156
scalar abilene_nodelay_network.node[6].proactive_component 	avg_time[6].proactive_component 	0
scalar abilene_nodelay_network.node[7].core_layer 	interests[7] 	58980779
scalar abilene_nodelay_network.node[7].core_layer 	data[7] 	50401395
scalar abilene_nodelay_network.node[7].core_layer 	slots_sent[face$o[1]->client[7]] 	0
scalar abilene_nodelay_network.node[7].core_layer 	slots_sent[face$o[2]->node[3]] 	0
scalar abilene_nodelay_network.node[7].core_layer 	slots_sent[face$o[3]->node[6]] 	0
scalar abilene_nodelay_network.node[7].core_layer 	slots_sent[face$o[4]->node[8]] 	5919379418
scalar abilene_nodelay_network.node[7].content_store 	p_hit[7] 	0.1454606762654
scalar abilene_nodelay_network.node[7].content_store 	hits[7] 	8579384
scalar abilene_nodelay_network.node[7].content_store 	misses[7] 	50401395
scalar abilene_nodelay_network.node[7].content_store 	decision_yes[7] 	50613
scalar abilene_nodelay_network.node[7].content_store 	decision_no[7] 	50350782
scalar abilene_nodelay_network.node[7].content_store 	decision_ratio[7] 	0.0010041983956992
scalar abilene_nodelay_network.node[7].content_store 	"representation_breakdown[7] 52497:69:6:4:2:" 	0
scalar abilene_nodelay_network.node[7].proactive_component 	hdistance[7].proactive_component 	2.9995424388012
scalar abilene_nodelay_network.node[7].proactive_component 	downloads[7].proactive_component 	8742
scalar abilene_nodelay_network.node[7].proactive_component 	avg_time[7].proactive_component 	0
scalar abilene_nodelay_network.node[8].core_layer 	interests[8] 	180079606
scalar abilene_nodelay_network.node[8].core_layer 	data[8] 	58972216
scalar abilene_nodelay_network.node[8].core_layer 	slots_sent[face$o[1]->client[8]] 	42972016306
scalar abilene_nodelay_network.node[8].core_layer 	slots_sent[face$o[2]->node[2]] 	0
scalar abilene_nodelay_network.node[8].core_layer 	slots_sent[face$o[3]->node[7]] 	0
scalar abilene_nodelay_network.node[8].core_layer 	slots_sent[face$o[4]->node[9]] 	0
scalar abilene_nodelay_network.node[8].content_store 	p_hit[8] 	0.67252140700486
scalar abilene_nodelay_network.node[8].content_store 	hits[8] 	121107390
scalar abilene_nodelay_network.node[8].content_store 	misses[8] 	58972216
scalar abilene_nodelay_network.node[8].content_store 	decision_yes[8] 	59027
scalar abilene_nodelay_network.node[8].content_store 	decision_no[8] 	58913189
scalar abilene_nodelay_network.node[8].content_store 	decision_ratio[8] 	0.0010009289798437
scalar abilene_nodelay_network.node[8].content_store 	"representation_breakdown[8] 61079:63:6:0:4:" 	0
scalar abilene_nodelay_network.node[8].proactive_component 	hdistance[8].proactive_component 	3.5215220252381
scalar abilene_nodelay_network.node[8].proactive_component 	downloads[8].proactive_component 	103336
scalar abilene_nodelay_network.node[8].proactive_component 	avg_time[8].proactive_component 	0
scalar abilene_nodelay_network.node[9].core_layer 	interests[9] 	0
scalar abilene_nodelay_network.node[9].core_layer 	data[9] 	0
scalar abilene_nodelay_network.node[9].core_layer 	slots_sent[face$o[1]->client[9]] 	0
scalar abilene_nodelay_network.node[9].core_layer 	slots_sent[face$o[2]->node[10]] 	0
scalar abilene_nodelay_network.node[9].core_layer 	slots_sent[face$o[3]->node[8]] 	0
scalar abilene_nodelay_network.node[9].content_store 	p_hit[9] 	-nan
scalar abilene_nodelay_network.node[9].content_store 	hits[9] 	0
scalar abilene_nodelay_network.node[9].content_store 	misses[9] 	0
scalar abilene_nodelay_network.node[9].content_store 	decision_yes[9] 	0
scalar abilene_nodelay_network.node[9].content_store 	decision_no[9] 	0
scalar abilene_nodelay_network.node[9].content_store 	decision_ratio[9] 	0
scalar abilene_nodelay_network.node[9].content_store 	"representation_breakdown[9] 0:0:0:0:0:" 	0
scalar abilene_nodelay_network.node[10].core_layer 	interests[10] 	0
scalar abilene_nodelay_network.node[10].core_layer 	data[10] 	0
scalar abilene_nodelay_network.node[10].core_layer 	slots_sent[face$o[1]->client[10]] 	0
scalar abilene_nodelay_network.node[10].core_layer 	slots_sent[face$o[2]->node[0]] 	0
scalar abilene_nodelay_network.node[10].core_layer 	slots_sent[face$o[3]->node[1]] 	0
scalar abilene_nodelay_network.node[10].core_layer 	slots_sent[face$o[4]->node[9]] 	0
scalar abilene_nodelay_network.node[10].content_store 	p_hit[10] 	-nan
scalar abilene_nodelay_network.node[10].content_store 	hits[10] 	0
scalar abilene_nodelay_network.node[10].content_store 	misses[10] 	0
scalar abilene_nodelay_network.node[10].content_store 	decision_yes[10] 	0
scalar abilene_nodelay_network.node[10].content_store 	decision_no[10] 	0
scalar abilene_nodelay_network.node[10].content_store 	decision_ratio[10] 	0
scalar abilene_nodelay_network.node[10].content_store 	"representation_breakdown[10] 0:0:0:0:0:" 	0
scalar abilene_nodelay_network.client[8] 	hdistance[8].real 	1.1098907328608
scalar abilene_nodelay_network.client[8] 	downloads[8].real 	179977715
scalar abilene_nodelay_network.client[8] 	avg_time[8].real 	0
