version 2
run General-2715-20140423-19:40:37-28861
attr D fix0.1
attr F nrr
attr R lru
attr a 0.8
attr configname General
attr csize 2
attr ctlg 10^3
attr datetime 20140423-19:40:37
attr experiment General
attr inifile omnetpp.ini
attr iterationvars "$net=simple_scenario, $rep=8, $priceratiovalue=6, $a=0.8, $ctlg=10^3, $F=nrr, $ttl=1000, $D=fix0.1, $R=lru, $csize=2"
attr iterationvars2 "$net=simple_scenario, $rep=8, $priceratiovalue=6, $a=0.8, $ctlg=10^3, $F=nrr, $ttl=1000, $D=fix0.1, $R=lru, $csize=2, $repetition=0"
attr measurement "$net=simple_scenario, $rep=8, $priceratiovalue=6, $a=0.8, $ctlg=10^3, $F=nrr, $ttl=1000, $D=fix0.1, $R=lru, $csize=2"
attr net simple_scenario
attr network networks.${net=simple_scenario}_network
attr priceratiovalue 6
attr processid 28861
attr rep 8
attr repetition 0
attr replication #0
attr resultdir results
attr runnumber 2715
attr seedset 8
attr ttl 1000

scalar . 	a 	0.8
scalar . 	csize 	2
scalar . 	priceratiovalue 	6
scalar . 	rep 	8
scalar . 	ttl 	1000
scalar simple_scenario_network.content_distribution 	repo-0 	3
scalar simple_scenario_network.content_distribution 	repo-1 	4
scalar simple_scenario_network.content_distribution 	client-0 	0
scalar simple_scenario_network.content_distribution 	repo-0_card 	485
scalar simple_scenario_network.content_distribution 	repo-1_card 	515
scalar simple_scenario_network.statistics 	p_hit 	0.019071886633387
scalar simple_scenario_network.statistics 	interests 	105569
scalar simple_scenario_network.statistics 	data 	69455.8
scalar simple_scenario_network.statistics 	hdistance 	2.8675276630152
scalar simple_scenario_network.statistics 	avg_time 	0.001997977481
scalar simple_scenario_network.statistics 	downloads 	180566
scalar simple_scenario_network.statistics 	total_cost 	91121
scalar simple_scenario_network.node[0].core_layer 	interests[0] 	180566
scalar simple_scenario_network.node[0].core_layer 	data[0] 	176780
scalar simple_scenario_network.node[0].core_layer 	repo_int[0] 	170499
scalar simple_scenario_network.node[0].content_store 	p_hit[0] 	0.020967402501025
scalar simple_scenario_network.node[0].content_store 	hits[0] 	3786
scalar simple_scenario_network.node[0].content_store 	misses[0] 	176780
scalar simple_scenario_network.node[1].core_layer 	interests[1] 	79265
scalar simple_scenario_network.node[1].core_layer 	data[1] 	77029
scalar simple_scenario_network.node[1].content_store 	p_hit[1] 	0.028209171765596
scalar simple_scenario_network.node[1].content_store 	hits[1] 	2236
scalar simple_scenario_network.node[1].content_store 	misses[1] 	77029
scalar simple_scenario_network.node[2].core_layer 	interests[2] 	97515
scalar simple_scenario_network.node[2].core_layer 	data[2] 	93470
scalar simple_scenario_network.node[2].content_store 	p_hit[2] 	0.041480797825975
scalar simple_scenario_network.node[2].content_store 	hits[2] 	4045
scalar simple_scenario_network.node[2].content_store 	misses[2] 	93470
scalar simple_scenario_network.node[3].core_layer 	interests[3] 	77029
scalar simple_scenario_network.node[3].core_layer 	repo_load[3] 	77029
scalar simple_scenario_network.node[3].core_layer 	data[3] 	0
scalar simple_scenario_network.node[3].content_store 	p_hit[3] 	0
scalar simple_scenario_network.node[3].content_store 	hits[3] 	0
scalar simple_scenario_network.node[3].content_store 	misses[3] 	77029
scalar simple_scenario_network.node[4].core_layer 	interests[4] 	93470
scalar simple_scenario_network.node[4].core_layer 	repo_load[4] 	93470
scalar simple_scenario_network.node[4].core_layer 	data[4] 	0
scalar simple_scenario_network.node[4].content_store 	p_hit[4] 	0
scalar simple_scenario_network.node[4].content_store 	hits[4] 	0
scalar simple_scenario_network.node[4].content_store 	misses[4] 	93470
scalar simple_scenario_network.client[0] 	hdistance[0] 	2.8675276630152
scalar simple_scenario_network.client[0] 	downloads[0] 	180566
scalar simple_scenario_network.client[0] 	avg_time[0] 	0.001997977481
