version 2
run General-2-20140512-16:42:20-30054
attr D costprobprodcorr0.01
attr F spr
attr R lru
attr a 1
attr configname General
attr csize 1e3
attr ctlg 1e5
attr datetime 20140512-16:42:20
attr experiment General
attr inifile omnetpp.ini
attr iterationvars "$net=abilene_cost, $rep=1, $priceratiovalue=10, $weights=0.333_0.333_0.334, $a=1, $ctlg=1e5, $F=spr, $ttl=1000, $D=costprobprodcorr0.01, $xi=0.50, $R=lru, $csize=1e3"
attr iterationvars2 "$net=abilene_cost, $rep=1, $priceratiovalue=10, $weights=0.333_0.333_0.334, $a=1, $ctlg=1e5, $F=spr, $ttl=1000, $D=costprobprodcorr0.01, $xi=0.50, $R=lru, $csize=1e3, $repetition=0"
attr measurement "$net=abilene_cost, $rep=1, $priceratiovalue=10, $weights=0.333_0.333_0.334, $a=1, $ctlg=1e5, $F=spr, $ttl=1000, $D=costprobprodcorr0.01, $xi=0.50, $R=lru, $csize=1e3"
attr net abilene_cost
attr network networks.${net=abilene_cost}_network
attr priceratiovalue 10
attr processid 30054
attr rep 1
attr repetition 0
attr replication #0
attr resultdir results
attr runnumber 2
attr seedset 1
attr ttl 1000
attr weights 0.333_0.333_0.334
attr xi 0.50

scalar . 	a 	1
scalar . 	csize 	1e3
scalar . 	ctlg 	1e5
scalar . 	priceratiovalue 	10
scalar . 	rep 	1
scalar . 	ttl 	1000
scalar . 	xi 	0.50
scalar abilene_cost_network.content_distribution 	repo-0 	11
scalar abilene_cost_network.content_distribution 	repo-1 	12
scalar abilene_cost_network.content_distribution 	repo-2 	13
scalar abilene_cost_network.content_distribution 	client-0 	3
scalar abilene_cost_network.content_distribution 	client-1 	7
scalar abilene_cost_network.content_distribution 	client-2 	10
scalar abilene_cost_network.content_distribution 	repo-0_card 	33396
scalar abilene_cost_network.content_distribution 	repo-1_card 	33039
scalar abilene_cost_network.content_distribution 	repo-2_card 	33565
scalar abilene_cost_network.statistics 	p_hit 	0.1123096437031
scalar abilene_cost_network.statistics 	interests 	140615.07142857
scalar abilene_cost_network.statistics 	data 	102111.42857143
scalar abilene_cost_network.statistics 	hdistance 	3.2419101122835
scalar abilene_cost_network.statistics 	avg_time 	0
scalar abilene_cost_network.statistics 	downloads 	539051
scalar abilene_cost_network.statistics 	total_cost 	938058
scalar abilene_cost_network.statistics 	total_replicas 	100000
scalar abilene_cost_network.statistics 	interests_sent 	539051
scalar abilene_cost_network.node[0].core_layer 	interests[0] 	153773
scalar abilene_cost_network.node[0].core_layer 	data[0] 	153773
scalar abilene_cost_network.node[0].core_layer 	repo_int[0] 	317957
scalar abilene_cost_network.node[0].content_store 	p_hit[0] 	0
scalar abilene_cost_network.node[0].content_store 	hits[0] 	0
scalar abilene_cost_network.node[0].content_store 	misses[0] 	153773
scalar abilene_cost_network.node[0].content_store 	decision_yes[0] 	0
scalar abilene_cost_network.node[0].content_store 	decision_no[0] 	153773
scalar abilene_cost_network.node[0].content_store 	decision_ratio[0] 	0
scalar abilene_cost_network.node[0].content_store 	correction_factor[0] 	0.0071983837345384
scalar abilene_cost_network.node[0].content_store 	xi[0] 	0.5
scalar abilene_cost_network.node[1].core_layer 	interests[1] 	103330
scalar abilene_cost_network.node[1].core_layer 	data[1] 	100468
scalar abilene_cost_network.node[1].content_store 	p_hit[1] 	0.027697667666699
scalar abilene_cost_network.node[1].content_store 	hits[1] 	2862
scalar abilene_cost_network.node[1].content_store 	misses[1] 	100468
scalar abilene_cost_network.node[1].content_store 	decision_yes[1] 	180
scalar abilene_cost_network.node[1].content_store 	decision_no[1] 	100288
scalar abilene_cost_network.node[1].content_store 	decision_ratio[1] 	0.0017916152406736
scalar abilene_cost_network.node[1].content_store 	correction_factor[1] 	0.0071983837345384
scalar abilene_cost_network.node[1].content_store 	xi[1] 	0.5
scalar abilene_cost_network.node[2].core_layer 	interests[2] 	100468
scalar abilene_cost_network.node[2].core_layer 	data[2] 	91604
scalar abilene_cost_network.node[2].content_store 	p_hit[2] 	0.088227097185173
scalar abilene_cost_network.node[2].content_store 	hits[2] 	8864
scalar abilene_cost_network.node[2].content_store 	misses[2] 	91604
scalar abilene_cost_network.node[2].content_store 	decision_yes[2] 	178
scalar abilene_cost_network.node[2].content_store 	decision_no[2] 	91426
scalar abilene_cost_network.node[2].content_store 	decision_ratio[2] 	0.0019431465874853
scalar abilene_cost_network.node[2].content_store 	correction_factor[2] 	0.0071983837345384
scalar abilene_cost_network.node[2].content_store 	xi[2] 	0.5
scalar abilene_cost_network.node[3].core_layer 	interests[3] 	220187
scalar abilene_cost_network.node[3].core_layer 	data[3] 	203904
scalar abilene_cost_network.node[3].content_store 	p_hit[3] 	0.073950778202165
scalar abilene_cost_network.node[3].content_store 	hits[3] 	16283
scalar abilene_cost_network.node[3].content_store 	misses[3] 	203904
scalar abilene_cost_network.node[3].content_store 	decision_yes[3] 	1043
scalar abilene_cost_network.node[3].content_store 	decision_no[3] 	202861
scalar abilene_cost_network.node[3].content_store 	decision_ratio[3] 	0.0051151522284997
scalar abilene_cost_network.node[3].content_store 	correction_factor[3] 	0.0071983837345384
scalar abilene_cost_network.node[3].content_store 	xi[3] 	0.5
scalar abilene_cost_network.node[4].core_layer 	interests[4] 	81833
scalar abilene_cost_network.node[4].core_layer 	data[4] 	68845
scalar abilene_cost_network.node[4].content_store 	p_hit[4] 	0.15871347744797
scalar abilene_cost_network.node[4].content_store 	hits[4] 	12988
scalar abilene_cost_network.node[4].content_store 	misses[4] 	68845
scalar abilene_cost_network.node[4].content_store 	decision_yes[4] 	361
scalar abilene_cost_network.node[4].content_store 	decision_no[4] 	68484
scalar abilene_cost_network.node[4].content_store 	decision_ratio[4] 	0.0052436633016196
scalar abilene_cost_network.node[4].content_store 	correction_factor[4] 	0.0071983837345384
scalar abilene_cost_network.node[4].content_store 	xi[4] 	0.5
scalar abilene_cost_network.node[5].core_layer 	interests[5] 	106205
scalar abilene_cost_network.node[5].core_layer 	data[5] 	78198
scalar abilene_cost_network.node[5].content_store 	p_hit[5] 	0.26370698178052
scalar abilene_cost_network.node[5].content_store 	hits[5] 	28007
scalar abilene_cost_network.node[5].content_store 	misses[5] 	78198
scalar abilene_cost_network.node[5].content_store 	decision_yes[5] 	530
scalar abilene_cost_network.node[5].content_store 	decision_no[5] 	77668
scalar abilene_cost_network.node[5].content_store 	decision_ratio[5] 	0.0067776669480038
scalar abilene_cost_network.node[5].content_store 	correction_factor[5] 	0.0071983837345384
scalar abilene_cost_network.node[5].content_store 	xi[5] 	0.5
scalar abilene_cost_network.node[6].core_layer 	interests[6] 	45204
scalar abilene_cost_network.node[6].core_layer 	data[6] 	37360
scalar abilene_cost_network.node[6].content_store 	p_hit[6] 	0.17352446686134
scalar abilene_cost_network.node[6].content_store 	hits[6] 	7844
scalar abilene_cost_network.node[6].content_store 	misses[6] 	37360
scalar abilene_cost_network.node[6].content_store 	decision_yes[6] 	190
scalar abilene_cost_network.node[6].content_store 	decision_no[6] 	37170
scalar abilene_cost_network.node[6].content_store 	decision_ratio[6] 	0.0050856531049251
scalar abilene_cost_network.node[6].content_store 	correction_factor[6] 	0.0071983837345384
scalar abilene_cost_network.node[6].content_store 	xi[6] 	0.5
scalar abilene_cost_network.node[7].core_layer 	interests[7] 	250320
scalar abilene_cost_network.node[7].core_layer 	data[7] 	200396
scalar abilene_cost_network.node[7].content_store 	p_hit[7] 	0.19944071588367
scalar abilene_cost_network.node[7].content_store 	hits[7] 	49924
scalar abilene_cost_network.node[7].content_store 	misses[7] 	200396
scalar abilene_cost_network.node[7].content_store 	decision_yes[7] 	1411
scalar abilene_cost_network.node[7].content_store 	decision_no[7] 	198985
scalar abilene_cost_network.node[7].content_store 	decision_ratio[7] 	0.0070410587037665
scalar abilene_cost_network.node[7].content_store 	correction_factor[7] 	0.0071983837345384
scalar abilene_cost_network.node[7].content_store 	xi[7] 	0.5
scalar abilene_cost_network.node[8].core_layer 	interests[8] 	155192
scalar abilene_cost_network.node[8].core_layer 	data[8] 	136068
scalar abilene_cost_network.node[8].content_store 	p_hit[8] 	0.12322800144337
scalar abilene_cost_network.node[8].content_store 	hits[8] 	19124
scalar abilene_cost_network.node[8].content_store 	misses[8] 	136068
scalar abilene_cost_network.node[8].content_store 	decision_yes[8] 	1264
scalar abilene_cost_network.node[8].content_store 	decision_no[8] 	134804
scalar abilene_cost_network.node[8].content_store 	decision_ratio[8] 	0.0092894729106035
scalar abilene_cost_network.node[8].content_store 	correction_factor[8] 	0.0071983837345384
scalar abilene_cost_network.node[8].content_store 	xi[8] 	0.5
scalar abilene_cost_network.node[9].core_layer 	interests[9] 	203147
scalar abilene_cost_network.node[9].core_layer 	data[9] 	137164
scalar abilene_cost_network.node[9].content_store 	p_hit[9] 	0.3248042058214
scalar abilene_cost_network.node[9].content_store 	hits[9] 	65983
scalar abilene_cost_network.node[9].content_store 	misses[9] 	137164
scalar abilene_cost_network.node[9].content_store 	decision_yes[9] 	2030
scalar abilene_cost_network.node[9].content_store 	decision_no[9] 	135134
scalar abilene_cost_network.node[9].content_store 	decision_ratio[9] 	0.014799801697238
scalar abilene_cost_network.node[9].content_store 	correction_factor[9] 	0.0071983837345384
scalar abilene_cost_network.node[9].content_store 	xi[9] 	0.5
scalar abilene_cost_network.node[10].core_layer 	interests[10] 	230995
scalar abilene_cost_network.node[10].core_layer 	data[10] 	221780
scalar abilene_cost_network.node[10].content_store 	p_hit[10] 	0.039892638368796
scalar abilene_cost_network.node[10].content_store 	hits[10] 	9215
scalar abilene_cost_network.node[10].content_store 	misses[10] 	221780
scalar abilene_cost_network.node[10].content_store 	decision_yes[10] 	921
scalar abilene_cost_network.node[10].content_store 	decision_no[10] 	220859
scalar abilene_cost_network.node[10].content_store 	decision_ratio[10] 	0.0041527640003607
scalar abilene_cost_network.node[10].content_store 	correction_factor[10] 	0.0071983837345384
scalar abilene_cost_network.node[10].content_store 	xi[10] 	0.5
scalar abilene_cost_network.node[11].core_layer 	interests[11] 	153773
scalar abilene_cost_network.node[11].core_layer 	repo_load[11] 	153773
scalar abilene_cost_network.node[11].core_layer 	data[11] 	0
scalar abilene_cost_network.node[11].content_store 	p_hit[11] 	0
scalar abilene_cost_network.node[11].content_store 	hits[11] 	0
scalar abilene_cost_network.node[11].content_store 	misses[11] 	153773
scalar abilene_cost_network.node[11].content_store 	decision_yes[11] 	0
scalar abilene_cost_network.node[11].content_store 	decision_no[11] 	153773
scalar abilene_cost_network.node[11].content_store 	decision_ratio[11] 	0
scalar abilene_cost_network.node[12].core_layer 	interests[12] 	78198
scalar abilene_cost_network.node[12].core_layer 	repo_load[12] 	78198
scalar abilene_cost_network.node[12].core_layer 	data[12] 	0
scalar abilene_cost_network.node[12].content_store 	p_hit[12] 	0
scalar abilene_cost_network.node[12].content_store 	hits[12] 	0
scalar abilene_cost_network.node[12].content_store 	misses[12] 	78198
scalar abilene_cost_network.node[12].content_store 	decision_yes[12] 	0
scalar abilene_cost_network.node[12].content_store 	decision_no[12] 	78198
scalar abilene_cost_network.node[12].content_store 	decision_ratio[12] 	0
scalar abilene_cost_network.node[13].core_layer 	interests[13] 	85986
scalar abilene_cost_network.node[13].core_layer 	repo_load[13] 	85986
scalar abilene_cost_network.node[13].core_layer 	data[13] 	0
scalar abilene_cost_network.node[13].content_store 	p_hit[13] 	0
scalar abilene_cost_network.node[13].content_store 	hits[13] 	0
scalar abilene_cost_network.node[13].content_store 	misses[13] 	85986
scalar abilene_cost_network.node[13].content_store 	decision_yes[13] 	0
scalar abilene_cost_network.node[13].content_store 	decision_no[13] 	85986
scalar abilene_cost_network.node[13].content_store 	decision_ratio[13] 	0
scalar abilene_cost_network.client[3] 	hdistance[3] 	3.3823198949851
scalar abilene_cost_network.client[3] 	downloads[3] 	179784
scalar abilene_cost_network.client[3] 	avg_time[3] 	0
scalar abilene_cost_network.client[3] 	interests_sent[3] 	179784
scalar abilene_cost_network.client[7] 	hdistance[7] 	3.3325215937587
scalar abilene_cost_network.client[7] 	downloads[7] 	179450
scalar abilene_cost_network.client[7] 	avg_time[7] 	0
scalar abilene_cost_network.client[7] 	interests_sent[7] 	179450
scalar abilene_cost_network.client[10] 	hdistance[10] 	3.0108888481067
scalar abilene_cost_network.client[10] 	downloads[10] 	179817
scalar abilene_cost_network.client[10] 	avg_time[10] 	0
scalar abilene_cost_network.client[10] 	interests_sent[10] 	179817
