version 2
run General-14-20140625-18:16:55-12193
attr D costprobprodcorr0.01
attr F nrr
attr R lru
attr a 1
attr configname General
attr csize 1e3
attr ctlg 1e5
attr datetime 20140625-18:16:55
attr experiment General
attr inifile omnetpp.ini
attr iterationvars "$net=abilene_cost, $rep=1, $priceratiovalue=10, $weights=0.333_0.333_0.334, $lambda=100, $a=1, $ctlg=1e5, $F=nrr, $ttl=1000, $D=costprobprodcorr0.01, $xi=0.05, $R=lru, $csize=1e3, $pricebits=0, $mytime=1800"
attr iterationvars2 "$net=abilene_cost, $rep=1, $priceratiovalue=10, $weights=0.333_0.333_0.334, $lambda=100, $a=1, $ctlg=1e5, $F=nrr, $ttl=1000, $D=costprobprodcorr0.01, $xi=0.05, $R=lru, $csize=1e3, $pricebits=0, $mytime=1800, $repetition=0"
attr lambda 100
attr measurement "$net=abilene_cost, $rep=1, $priceratiovalue=10, $weights=0.333_0.333_0.334, $lambda=100, $a=1, $ctlg=1e5, $F=nrr, $ttl=1000, $D=costprobprodcorr0.01, $xi=0.05, $R=lru, $csize=1e3, $pricebits=0, $mytime=1800"
attr mytime 1800
attr net abilene_cost
attr network "networks.${net=geant_cost, abilene_cost}_network"
attr pricebits 0
attr priceratiovalue 10
attr processid 12193
attr rep 1
attr repetition 0
attr replication #0
attr resultdir results
attr runnumber 14
attr seedset 1
attr ttl 1000
attr weights 0.333_0.333_0.334
attr xi 0.05

scalar . 	a 	1
scalar . 	csize 	1e3
scalar . 	ctlg 	1e5
scalar . 	lambda 	100
scalar . 	mytime 	1800
scalar . 	pricebits 	0
scalar . 	priceratiovalue 	10
scalar . 	rep 	1
scalar . 	ttl 	1000
scalar . 	xi 	0.05
scalar abilene_cost_network.content_distribution 	repo-0 	11
scalar abilene_cost_network.content_distribution 	repo-1 	12
scalar abilene_cost_network.content_distribution 	repo-2 	13
scalar abilene_cost_network.content_distribution 	client-0 	5
scalar abilene_cost_network.content_distribution 	client-1 	0
scalar abilene_cost_network.content_distribution 	client-2 	9
scalar abilene_cost_network.content_distribution 	repo-0_card 	33396
scalar abilene_cost_network.content_distribution 	repo-1_card 	33039
scalar abilene_cost_network.content_distribution 	repo-2_card 	33565
scalar abilene_cost_network.statistics 	repo_popularity[0] 	0.28686251265602
scalar abilene_cost_network.statistics 	repo_popularity[1] 	0.2886063426465
scalar abilene_cost_network.statistics 	repo_popularity[2] 	0.42453114469748
scalar abilene_cost_network.statistics 	stabilization_time 	471.4
scalar abilene_cost_network.node[1].face$o[4].channel 	price[1] 	0
scalar abilene_cost_network.node[1].face$o[4].channel 	represented_price[1] 	0
scalar abilene_cost_network.node[7].face$o[4].channel 	price[7] 	0
scalar abilene_cost_network.node[7].face$o[4].channel 	represented_price[7] 	0
scalar abilene_cost_network.node[10].face$o[4].channel 	price[10] 	0
scalar abilene_cost_network.node[10].face$o[4].channel 	represented_price[10] 	0
scalar abilene_cost_network.node[11].face$o[1].channel 	price[11] 	0
scalar abilene_cost_network.node[11].face$o[1].channel 	represented_price[11] 	0
scalar abilene_cost_network.node[12].face$o[1].channel 	price[12] 	1
scalar abilene_cost_network.node[12].face$o[1].channel 	represented_price[12] 	1
scalar abilene_cost_network.node[13].face$o[1].channel 	price[13] 	10
scalar abilene_cost_network.node[13].face$o[1].channel 	represented_price[13] 	10
scalar abilene_cost_network.statistics 	p_hit 	0.11149172872841
scalar abilene_cost_network.statistics 	interests 	148776.57142857
scalar abilene_cost_network.statistics 	data 	110250
scalar abilene_cost_network.statistics 	hdistance 	3.4703935746577
scalar abilene_cost_network.statistics 	avg_time 	0.015126488971
scalar abilene_cost_network.statistics 	downloads 	531235
scalar abilene_cost_network.statistics 	total_cost 	816750
scalar abilene_cost_network.statistics 	total_replicas 	100000
scalar abilene_cost_network.statistics 	inner_hit 	0.43716999068209
scalar abilene_cost_network.statistics 	interests_sent 	539369
scalar abilene_cost_network.node[0].core_layer 	interests[0] 	193470
scalar abilene_cost_network.node[0].core_layer 	data[0] 	167258
scalar abilene_cost_network.node[0].core_layer 	repo_int[0] 	298995
scalar abilene_cost_network.node[0].content_store 	p_hit[0] 	0.12394169638704
scalar abilene_cost_network.node[0].content_store 	hits[0] 	23979
scalar abilene_cost_network.node[0].content_store 	misses[0] 	169491
scalar abilene_cost_network.node[0].content_store 	decision_yes[0] 	777
scalar abilene_cost_network.node[0].content_store 	decision_no[0] 	166481
scalar abilene_cost_network.node[0].content_store 	decision_ratio[0] 	0.0046455177031891
scalar abilene_cost_network.node[0].content_store 	correction_factor[0] 	0.014129199815938
scalar abilene_cost_network.node[0].content_store 	xi[0] 	0.05
scalar abilene_cost_network.node[1].core_layer 	interests[1] 	263458
scalar abilene_cost_network.node[1].core_layer 	data[1] 	183639
scalar abilene_cost_network.node[1].content_store 	p_hit[1] 	0.30297049245041
scalar abilene_cost_network.node[1].content_store 	hits[1] 	79820
scalar abilene_cost_network.node[1].content_store 	misses[1] 	183638
scalar abilene_cost_network.node[1].content_store 	decision_yes[1] 	1495
scalar abilene_cost_network.node[1].content_store 	decision_no[1] 	182144
scalar abilene_cost_network.node[1].content_store 	decision_ratio[1] 	0.0081409722335669
scalar abilene_cost_network.node[1].content_store 	correction_factor[1] 	0.014129199815938
scalar abilene_cost_network.node[1].content_store 	xi[1] 	0.05
scalar abilene_cost_network.node[2].core_layer 	interests[2] 	170771
scalar abilene_cost_network.node[2].core_layer 	data[2] 	161843
scalar abilene_cost_network.node[2].content_store 	p_hit[2] 	0.052163423532099
scalar abilene_cost_network.node[2].content_store 	hits[2] 	8908
scalar abilene_cost_network.node[2].content_store 	misses[2] 	161863
scalar abilene_cost_network.node[2].content_store 	decision_yes[2] 	680
scalar abilene_cost_network.node[2].content_store 	decision_no[2] 	161163
scalar abilene_cost_network.node[2].content_store 	decision_ratio[2] 	0.004201602787887
scalar abilene_cost_network.node[2].content_store 	correction_factor[2] 	0.014129199815938
scalar abilene_cost_network.node[2].content_store 	xi[2] 	0.05
scalar abilene_cost_network.node[3].core_layer 	interests[3] 	169537
scalar abilene_cost_network.node[3].core_layer 	data[3] 	151459
scalar abilene_cost_network.node[3].content_store 	p_hit[3] 	0.1066315907442
scalar abilene_cost_network.node[3].content_store 	hits[3] 	18078
scalar abilene_cost_network.node[3].content_store 	misses[3] 	151459
scalar abilene_cost_network.node[3].content_store 	decision_yes[3] 	729
scalar abilene_cost_network.node[3].content_store 	decision_no[3] 	150730
scalar abilene_cost_network.node[3].content_store 	decision_ratio[3] 	0.0048131837659036
scalar abilene_cost_network.node[3].content_store 	correction_factor[3] 	0.014129199815938
scalar abilene_cost_network.node[3].content_store 	xi[3] 	0.05
scalar abilene_cost_network.node[4].core_layer 	interests[4] 	125843
scalar abilene_cost_network.node[4].core_layer 	data[4] 	119301
scalar abilene_cost_network.node[4].content_store 	p_hit[4] 	0.051985410392314
scalar abilene_cost_network.node[4].content_store 	hits[4] 	6542
scalar abilene_cost_network.node[4].content_store 	misses[4] 	119301
scalar abilene_cost_network.node[4].content_store 	decision_yes[4] 	400
scalar abilene_cost_network.node[4].content_store 	decision_no[4] 	118901
scalar abilene_cost_network.node[4].content_store 	decision_ratio[4] 	0.0033528637647631
scalar abilene_cost_network.node[4].content_store 	correction_factor[4] 	0.014129199815938
scalar abilene_cost_network.node[4].content_store 	xi[4] 	0.05
scalar abilene_cost_network.node[5].core_layer 	interests[5] 	187131
scalar abilene_cost_network.node[5].core_layer 	data[5] 	169455
scalar abilene_cost_network.node[5].content_store 	p_hit[5] 	0.076042985929643
scalar abilene_cost_network.node[5].content_store 	hits[5] 	14230
scalar abilene_cost_network.node[5].content_store 	misses[5] 	172901
scalar abilene_cost_network.node[5].content_store 	decision_yes[5] 	718
scalar abilene_cost_network.node[5].content_store 	decision_no[5] 	168737
scalar abilene_cost_network.node[5].content_store 	decision_ratio[5] 	0.0042371130978726
scalar abilene_cost_network.node[5].content_store 	correction_factor[5] 	0.014129199815938
scalar abilene_cost_network.node[5].content_store 	xi[5] 	0.05
scalar abilene_cost_network.node[6].core_layer 	interests[6] 	56822
scalar abilene_cost_network.node[6].core_layer 	data[6] 	49505
scalar abilene_cost_network.node[6].content_store 	p_hit[6] 	0.12875294780191
scalar abilene_cost_network.node[6].content_store 	hits[6] 	7316
scalar abilene_cost_network.node[6].content_store 	misses[6] 	49506
scalar abilene_cost_network.node[6].content_store 	decision_yes[6] 	299
scalar abilene_cost_network.node[6].content_store 	decision_no[6] 	49206
scalar abilene_cost_network.node[6].content_store 	decision_ratio[6] 	0.006039793960206
scalar abilene_cost_network.node[6].content_store 	correction_factor[6] 	0.014129199815938
scalar abilene_cost_network.node[6].content_store 	xi[6] 	0.05
scalar abilene_cost_network.node[7].core_layer 	interests[7] 	123806
scalar abilene_cost_network.node[7].core_layer 	data[7] 	88811
scalar abilene_cost_network.node[7].content_store 	p_hit[7] 	0.28265996801447
scalar abilene_cost_network.node[7].content_store 	hits[7] 	34995
scalar abilene_cost_network.node[7].content_store 	misses[7] 	88811
scalar abilene_cost_network.node[7].content_store 	decision_yes[7] 	971
scalar abilene_cost_network.node[7].content_store 	decision_no[7] 	87840
scalar abilene_cost_network.node[7].content_store 	decision_ratio[7] 	0.010933330330702
scalar abilene_cost_network.node[7].content_store 	correction_factor[7] 	0.014129199815938
scalar abilene_cost_network.node[7].content_store 	xi[7] 	0.05
scalar abilene_cost_network.node[8].core_layer 	interests[8] 	64141
scalar abilene_cost_network.node[8].core_layer 	data[8] 	59700
scalar abilene_cost_network.node[8].content_store 	p_hit[8] 	0.069238084844327
scalar abilene_cost_network.node[8].content_store 	hits[8] 	4441
scalar abilene_cost_network.node[8].content_store 	misses[8] 	59700
scalar abilene_cost_network.node[8].content_store 	decision_yes[8] 	308
scalar abilene_cost_network.node[8].content_store 	decision_no[8] 	59392
scalar abilene_cost_network.node[8].content_store 	decision_ratio[8] 	0.0051591289782245
scalar abilene_cost_network.node[8].content_store 	correction_factor[8] 	0.014129199815938
scalar abilene_cost_network.node[8].content_store 	xi[8] 	0.05
scalar abilene_cost_network.node[9].core_layer 	interests[9] 	196685
scalar abilene_cost_network.node[9].core_layer 	data[9] 	168033
scalar abilene_cost_network.node[9].content_store 	p_hit[9] 	0.13319266848006
scalar abilene_cost_network.node[9].content_store 	hits[9] 	26197
scalar abilene_cost_network.node[9].content_store 	misses[9] 	170488
scalar abilene_cost_network.node[9].content_store 	decision_yes[9] 	701
scalar abilene_cost_network.node[9].content_store 	decision_no[9] 	167332
scalar abilene_cost_network.node[9].content_store 	decision_ratio[9] 	0.0041717995869859
scalar abilene_cost_network.node[9].content_store 	correction_factor[9] 	0.014129199815938
scalar abilene_cost_network.node[9].content_store 	xi[9] 	0.05
scalar abilene_cost_network.node[10].core_layer 	interests[10] 	232213
scalar abilene_cost_network.node[10].core_layer 	data[10] 	224496
scalar abilene_cost_network.node[10].content_store 	p_hit[10] 	0.033232420234871
scalar abilene_cost_network.node[10].content_store 	hits[10] 	7717
scalar abilene_cost_network.node[10].content_store 	misses[10] 	224496
scalar abilene_cost_network.node[10].content_store 	decision_yes[10] 	359
scalar abilene_cost_network.node[10].content_store 	decision_no[10] 	224137
scalar abilene_cost_network.node[10].content_store 	decision_ratio[10] 	0.0015991376238329
scalar abilene_cost_network.node[10].content_store 	correction_factor[10] 	0.014129199815938
scalar abilene_cost_network.node[10].content_store 	xi[10] 	0.05
scalar abilene_cost_network.node[11].core_layer 	interests[11] 	154230
scalar abilene_cost_network.node[11].core_layer 	repo_load[11] 	154230
scalar abilene_cost_network.node[11].core_layer 	data[11] 	0
scalar abilene_cost_network.node[11].content_store 	p_hit[11] 	0
scalar abilene_cost_network.node[11].content_store 	hits[11] 	0
scalar abilene_cost_network.node[11].content_store 	misses[11] 	154230
scalar abilene_cost_network.node[11].content_store 	decision_yes[11] 	0
scalar abilene_cost_network.node[11].content_store 	decision_no[11] 	154230
scalar abilene_cost_network.node[11].content_store 	decision_ratio[11] 	0
scalar abilene_cost_network.node[12].core_layer 	interests[12] 	70100
scalar abilene_cost_network.node[12].core_layer 	repo_load[12] 	70100
scalar abilene_cost_network.node[12].core_layer 	data[12] 	0
scalar abilene_cost_network.node[12].content_store 	p_hit[12] 	0
scalar abilene_cost_network.node[12].content_store 	hits[12] 	0
scalar abilene_cost_network.node[12].content_store 	misses[12] 	70100
scalar abilene_cost_network.node[12].content_store 	decision_yes[12] 	0
scalar abilene_cost_network.node[12].content_store 	decision_no[12] 	70100
scalar abilene_cost_network.node[12].content_store 	decision_ratio[12] 	0
scalar abilene_cost_network.node[13].core_layer 	interests[13] 	74665
scalar abilene_cost_network.node[13].core_layer 	repo_load[13] 	74665
scalar abilene_cost_network.node[13].core_layer 	data[13] 	0
scalar abilene_cost_network.node[13].content_store 	p_hit[13] 	0
scalar abilene_cost_network.node[13].content_store 	hits[13] 	0
scalar abilene_cost_network.node[13].content_store 	misses[13] 	74665
scalar abilene_cost_network.node[13].content_store 	decision_yes[13] 	0
scalar abilene_cost_network.node[13].content_store 	decision_no[13] 	74665
scalar abilene_cost_network.node[13].content_store 	decision_ratio[13] 	0
scalar abilene_cost_network.client[0] 	hdistance[0] 	2.9410052538421
scalar abilene_cost_network.client[0] 	downloads[0] 	177965
scalar abilene_cost_network.client[0] 	avg_time[0] 	0.013454013872
scalar abilene_cost_network.client[0] 	interests_sent[0] 	180198
scalar abilene_cost_network.client[5] 	hdistance[5] 	4.6609230908751
scalar abilene_cost_network.client[5] 	downloads[5] 	176429
scalar abilene_cost_network.client[5] 	avg_time[5] 	0.019453287907
scalar abilene_cost_network.client[5] 	interests_sent[5] 	179875
scalar abilene_cost_network.client[9] 	hdistance[9] 	2.8092523792559
scalar abilene_cost_network.client[9] 	downloads[9] 	176841
scalar abilene_cost_network.client[9] 	avg_time[9] 	0.012472165136
scalar abilene_cost_network.client[9] 	interests_sent[9] 	179296
