version 2
run General-591-20140502-13:50:43-16208
attr D fix0.5
attr F nrr
attr R lru
attr a 1
attr configname General
attr csize 1e3
attr ctlg 1e5
attr datetime 20140502-13:50:43
attr experiment General
attr inifile omnetpp.ini
attr iterationvars "$net=three_caches_scenario_3_links, $rep=5, $priceratiovalue=1, $weights=0.333_0.333_0.334, $a=1, $ctlg=1e5, $F=nrr, $ttl=1000, $D=fix0.5, $xi=1, $R=lru, $csize=1e3"
attr iterationvars2 "$net=three_caches_scenario_3_links, $rep=5, $priceratiovalue=1, $weights=0.333_0.333_0.334, $a=1, $ctlg=1e5, $F=nrr, $ttl=1000, $D=fix0.5, $xi=1, $R=lru, $csize=1e3, $repetition=0"
attr measurement "$net=three_caches_scenario_3_links, $rep=5, $priceratiovalue=1, $weights=0.333_0.333_0.334, $a=1, $ctlg=1e5, $F=nrr, $ttl=1000, $D=fix0.5, $xi=1, $R=lru, $csize=1e3"
attr net three_caches_scenario_3_links
attr network networks.${net=three_caches_scenario_3_links}_network
attr priceratiovalue 1
attr processid 16208
attr rep 5
attr repetition 0
attr replication #0
attr resultdir results
attr runnumber 591
attr seedset 5
attr ttl 1000
attr weights 0.333_0.333_0.334
attr xi 1

scalar . 	a 	1
scalar . 	csize 	1e3
scalar . 	ctlg 	1e5
scalar . 	priceratiovalue 	1
scalar . 	rep 	5
scalar . 	ttl 	1000
scalar . 	xi 	1
scalar three_caches_scenario_3_links_network.content_distribution 	repo-0 	4
scalar three_caches_scenario_3_links_network.content_distribution 	repo-1 	5
scalar three_caches_scenario_3_links_network.content_distribution 	repo-2 	6
scalar three_caches_scenario_3_links_network.content_distribution 	client-0 	0
scalar three_caches_scenario_3_links_network.content_distribution 	repo-0_card 	33274
scalar three_caches_scenario_3_links_network.content_distribution 	repo-1_card 	33323
scalar three_caches_scenario_3_links_network.content_distribution 	repo-2_card 	33403
scalar three_caches_scenario_3_links_network.statistics 	p_hit 	0.23134473992342
scalar three_caches_scenario_3_links_network.statistics 	interests 	54170.857142857
scalar three_caches_scenario_3_links_network.statistics 	data 	28351
scalar three_caches_scenario_3_links_network.statistics 	hdistance 	1.4191569058145
scalar three_caches_scenario_3_links_network.statistics 	avg_time 	0
scalar three_caches_scenario_3_links_network.statistics 	downloads 	180739
scalar three_caches_scenario_3_links_network.statistics 	total_cost 	58040
scalar three_caches_scenario_3_links_network.statistics 	total_replicas 	100000
scalar three_caches_scenario_3_links_network.statistics 	interests_sent 	180739
scalar three_caches_scenario_3_links_network.node[0].core_layer 	interests[0] 	180739
scalar three_caches_scenario_3_links_network.node[0].core_layer 	data[0] 	105443
scalar three_caches_scenario_3_links_network.node[0].core_layer 	repo_int[0] 	93014
scalar three_caches_scenario_3_links_network.node[0].content_store 	p_hit[0] 	0.41660073365461
scalar three_caches_scenario_3_links_network.node[0].content_store 	hits[0] 	75296
scalar three_caches_scenario_3_links_network.node[0].content_store 	misses[0] 	105443
scalar three_caches_scenario_3_links_network.node[0].content_store 	decision_yes[0] 	52643
scalar three_caches_scenario_3_links_network.node[0].content_store 	decision_no[0] 	52800
scalar three_caches_scenario_3_links_network.node[1].core_layer 	interests[1] 	34974
scalar three_caches_scenario_3_links_network.node[1].core_layer 	data[1] 	34974
scalar three_caches_scenario_3_links_network.node[1].content_store 	p_hit[1] 	0
scalar three_caches_scenario_3_links_network.node[1].content_store 	hits[1] 	0
scalar three_caches_scenario_3_links_network.node[1].content_store 	misses[1] 	34974
scalar three_caches_scenario_3_links_network.node[1].content_store 	decision_yes[1] 	0
scalar three_caches_scenario_3_links_network.node[1].content_store 	decision_no[1] 	34974
scalar three_caches_scenario_3_links_network.node[2].core_layer 	interests[2] 	35151
scalar three_caches_scenario_3_links_network.node[2].core_layer 	data[2] 	28983
scalar three_caches_scenario_3_links_network.node[2].content_store 	p_hit[2] 	0.17547153708287
scalar three_caches_scenario_3_links_network.node[2].content_store 	hits[2] 	6168
scalar three_caches_scenario_3_links_network.node[2].content_store 	misses[2] 	28983
scalar three_caches_scenario_3_links_network.node[2].content_store 	decision_yes[2] 	14486
scalar three_caches_scenario_3_links_network.node[2].content_store 	decision_no[2] 	14497
scalar three_caches_scenario_3_links_network.node[3].core_layer 	interests[3] 	35318
scalar three_caches_scenario_3_links_network.node[3].core_layer 	data[3] 	29057
scalar three_caches_scenario_3_links_network.node[3].content_store 	p_hit[3] 	0.17727504388697
scalar three_caches_scenario_3_links_network.node[3].content_store 	hits[3] 	6261
scalar three_caches_scenario_3_links_network.node[3].content_store 	misses[3] 	29057
scalar three_caches_scenario_3_links_network.node[3].content_store 	decision_yes[3] 	14626
scalar three_caches_scenario_3_links_network.node[3].content_store 	decision_no[3] 	14431
scalar three_caches_scenario_3_links_network.node[4].core_layer 	interests[4] 	34974
scalar three_caches_scenario_3_links_network.node[4].core_layer 	repo_load[4] 	34974
scalar three_caches_scenario_3_links_network.node[4].core_layer 	data[4] 	0
scalar three_caches_scenario_3_links_network.node[4].content_store 	p_hit[4] 	0
scalar three_caches_scenario_3_links_network.node[4].content_store 	hits[4] 	0
scalar three_caches_scenario_3_links_network.node[4].content_store 	misses[4] 	34974
scalar three_caches_scenario_3_links_network.node[4].content_store 	decision_yes[4] 	0
scalar three_caches_scenario_3_links_network.node[4].content_store 	decision_no[4] 	34974
scalar three_caches_scenario_3_links_network.node[5].core_layer 	interests[5] 	28983
scalar three_caches_scenario_3_links_network.node[5].core_layer 	repo_load[5] 	28983
scalar three_caches_scenario_3_links_network.node[5].core_layer 	data[5] 	0
scalar three_caches_scenario_3_links_network.node[5].content_store 	p_hit[5] 	0
scalar three_caches_scenario_3_links_network.node[5].content_store 	hits[5] 	0
scalar three_caches_scenario_3_links_network.node[5].content_store 	misses[5] 	28983
scalar three_caches_scenario_3_links_network.node[5].content_store 	decision_yes[5] 	0
scalar three_caches_scenario_3_links_network.node[5].content_store 	decision_no[5] 	28983
scalar three_caches_scenario_3_links_network.node[6].core_layer 	interests[6] 	29057
scalar three_caches_scenario_3_links_network.node[6].core_layer 	repo_load[6] 	29057
scalar three_caches_scenario_3_links_network.node[6].core_layer 	data[6] 	0
scalar three_caches_scenario_3_links_network.node[6].content_store 	p_hit[6] 	0
scalar three_caches_scenario_3_links_network.node[6].content_store 	hits[6] 	0
scalar three_caches_scenario_3_links_network.node[6].content_store 	misses[6] 	29057
scalar three_caches_scenario_3_links_network.node[6].content_store 	decision_yes[6] 	0
scalar three_caches_scenario_3_links_network.node[6].content_store 	decision_no[6] 	29057
scalar three_caches_scenario_3_links_network.client[0] 	hdistance[0] 	1.4191569058145
scalar three_caches_scenario_3_links_network.client[0] 	downloads[0] 	180739
scalar three_caches_scenario_3_links_network.client[0] 	avg_time[0] 	0
scalar three_caches_scenario_3_links_network.client[0] 	interests_sent[0] 	180739
