version 2
run General-1142-20140502-03:19:38-10053
attr D costprob0.5
attr F nrr
attr R lru
attr a 1.2
attr configname General
attr csize 1e3
attr ctlg 1e5
attr datetime 20140502-03:19:38
attr experiment General
attr inifile omnetpp.ini
attr iterationvars "$net=three_caches_scenario_3_links, $rep=2, $priceratiovalue=10, $weights=0_0.5_0.5, $a=1.2, $ctlg=1e5, $F=nrr, $ttl=1000, $D=costprob0.5, $xi=1, $R=lru, $csize=1e3"
attr iterationvars2 "$net=three_caches_scenario_3_links, $rep=2, $priceratiovalue=10, $weights=0_0.5_0.5, $a=1.2, $ctlg=1e5, $F=nrr, $ttl=1000, $D=costprob0.5, $xi=1, $R=lru, $csize=1e3, $repetition=0"
attr measurement "$net=three_caches_scenario_3_links, $rep=2, $priceratiovalue=10, $weights=0_0.5_0.5, $a=1.2, $ctlg=1e5, $F=nrr, $ttl=1000, $D=costprob0.5, $xi=1, $R=lru, $csize=1e3"
attr net three_caches_scenario_3_links
attr network networks.${net=three_caches_scenario_3_links}_network
attr priceratiovalue 10
attr processid 10053
attr rep 2
attr repetition 0
attr replication #0
attr resultdir results
attr runnumber 1142
attr seedset 2
attr ttl 1000
attr weights 0_0.5_0.5
attr xi 1

scalar . 	a 	1.2
scalar . 	csize 	1e3
scalar . 	ctlg 	1e5
scalar . 	priceratiovalue 	10
scalar . 	rep 	2
scalar . 	ttl 	1000
scalar . 	xi 	1
scalar three_caches_scenario_3_links_network.content_distribution 	repo-0 	4
scalar three_caches_scenario_3_links_network.content_distribution 	repo-1 	5
scalar three_caches_scenario_3_links_network.content_distribution 	repo-2 	6
scalar three_caches_scenario_3_links_network.content_distribution 	client-0 	0
scalar three_caches_scenario_3_links_network.content_distribution 	repo-0_card 	0
scalar three_caches_scenario_3_links_network.content_distribution 	repo-1_card 	50028
scalar three_caches_scenario_3_links_network.content_distribution 	repo-2_card 	49972
scalar three_caches_scenario_3_links_network.statistics 	p_hit 	0.45564646961125
scalar three_caches_scenario_3_links_network.statistics 	interests 	44469
scalar three_caches_scenario_3_links_network.statistics 	data 	18779.142857143
scalar three_caches_scenario_3_links_network.statistics 	hdistance 	0.94227293706799
scalar three_caches_scenario_3_links_network.statistics 	avg_time 	0
scalar three_caches_scenario_3_links_network.statistics 	downloads 	179829
scalar three_caches_scenario_3_links_network.statistics 	total_cost 	220298
scalar three_caches_scenario_3_links_network.statistics 	total_replicas 	100000
scalar three_caches_scenario_3_links_network.statistics 	interests_sent 	179829
scalar three_caches_scenario_3_links_network.node[0].core_layer 	interests[0] 	179829
scalar three_caches_scenario_3_links_network.node[0].core_layer 	data[0] 	93460
scalar three_caches_scenario_3_links_network.node[0].core_layer 	repo_int[0] 	37994
scalar three_caches_scenario_3_links_network.node[0].content_store 	p_hit[0] 	0.48028404762302
scalar three_caches_scenario_3_links_network.node[0].content_store 	hits[0] 	86369
scalar three_caches_scenario_3_links_network.node[0].content_store 	misses[0] 	93460
scalar three_caches_scenario_3_links_network.node[0].content_store 	decision_yes[0] 	20019
scalar three_caches_scenario_3_links_network.node[0].content_store 	decision_no[0] 	73441
scalar three_caches_scenario_3_links_network.node[1].core_layer 	interests[1] 	0
scalar three_caches_scenario_3_links_network.node[1].core_layer 	data[1] 	0
scalar three_caches_scenario_3_links_network.node[1].content_store 	p_hit[1] 	-nan
scalar three_caches_scenario_3_links_network.node[1].content_store 	hits[1] 	0
scalar three_caches_scenario_3_links_network.node[1].content_store 	misses[1] 	0
scalar three_caches_scenario_3_links_network.node[1].content_store 	decision_yes[1] 	0
scalar three_caches_scenario_3_links_network.node[1].content_store 	decision_no[1] 	0
scalar three_caches_scenario_3_links_network.node[2].core_layer 	interests[2] 	61426
scalar three_caches_scenario_3_links_network.node[2].core_layer 	data[2] 	17738
scalar three_caches_scenario_3_links_network.node[2].content_store 	p_hit[2] 	0.71122977240908
scalar three_caches_scenario_3_links_network.node[2].content_store 	hits[2] 	43688
scalar three_caches_scenario_3_links_network.node[2].content_store 	misses[2] 	17738
scalar three_caches_scenario_3_links_network.node[2].content_store 	decision_yes[2] 	1709
scalar three_caches_scenario_3_links_network.node[2].content_store 	decision_no[2] 	16029
scalar three_caches_scenario_3_links_network.node[3].core_layer 	interests[3] 	32034
scalar three_caches_scenario_3_links_network.node[3].core_layer 	data[3] 	20256
scalar three_caches_scenario_3_links_network.node[3].content_store 	p_hit[3] 	0.3676718486608
scalar three_caches_scenario_3_links_network.node[3].content_store 	hits[3] 	11778
scalar three_caches_scenario_3_links_network.node[3].content_store 	misses[3] 	20256
scalar three_caches_scenario_3_links_network.node[3].content_store 	decision_yes[3] 	18407
scalar three_caches_scenario_3_links_network.node[3].content_store 	decision_no[3] 	1849
scalar three_caches_scenario_3_links_network.node[4].core_layer 	interests[4] 	0
scalar three_caches_scenario_3_links_network.node[4].core_layer 	data[4] 	0
scalar three_caches_scenario_3_links_network.node[4].content_store 	p_hit[4] 	-nan
scalar three_caches_scenario_3_links_network.node[4].content_store 	hits[4] 	0
scalar three_caches_scenario_3_links_network.node[4].content_store 	misses[4] 	0
scalar three_caches_scenario_3_links_network.node[4].content_store 	decision_yes[4] 	0
scalar three_caches_scenario_3_links_network.node[4].content_store 	decision_no[4] 	0
scalar three_caches_scenario_3_links_network.node[5].core_layer 	interests[5] 	17738
scalar three_caches_scenario_3_links_network.node[5].core_layer 	repo_load[5] 	17738
scalar three_caches_scenario_3_links_network.node[5].core_layer 	data[5] 	0
scalar three_caches_scenario_3_links_network.node[5].content_store 	p_hit[5] 	0
scalar three_caches_scenario_3_links_network.node[5].content_store 	hits[5] 	0
scalar three_caches_scenario_3_links_network.node[5].content_store 	misses[5] 	17738
scalar three_caches_scenario_3_links_network.node[5].content_store 	decision_yes[5] 	0
scalar three_caches_scenario_3_links_network.node[5].content_store 	decision_no[5] 	17738
scalar three_caches_scenario_3_links_network.node[6].core_layer 	interests[6] 	20256
scalar three_caches_scenario_3_links_network.node[6].core_layer 	repo_load[6] 	20256
scalar three_caches_scenario_3_links_network.node[6].core_layer 	data[6] 	0
scalar three_caches_scenario_3_links_network.node[6].content_store 	p_hit[6] 	0
scalar three_caches_scenario_3_links_network.node[6].content_store 	hits[6] 	0
scalar three_caches_scenario_3_links_network.node[6].content_store 	misses[6] 	20256
scalar three_caches_scenario_3_links_network.node[6].content_store 	decision_yes[6] 	0
scalar three_caches_scenario_3_links_network.node[6].content_store 	decision_no[6] 	20256
scalar three_caches_scenario_3_links_network.client[0] 	hdistance[0] 	0.94227293706799
scalar three_caches_scenario_3_links_network.client[0] 	downloads[0] 	179829
scalar three_caches_scenario_3_links_network.client[0] 	avg_time[0] 	0
scalar three_caches_scenario_3_links_network.client[0] 	interests_sent[0] 	179829
