version 2
run General-1219-20140422-20:04:35-28046
attr D fix0.1
attr F nrr
attr R lru
attr a 1.2
attr configname General
attr csize 10
attr ctlg 10^3
attr datetime 20140422-20:04:35
attr experiment General
attr inifile omnetpp.ini
attr iterationvars "$net=simple_scenario, $rep=11, $priceratiovalue=2, $a=1.2, $ctlg=10^3, $F=nrr, $ttl=1000, $D=fix0.1, $R=lru, $csize=10"
attr iterationvars2 "$net=simple_scenario, $rep=11, $priceratiovalue=2, $a=1.2, $ctlg=10^3, $F=nrr, $ttl=1000, $D=fix0.1, $R=lru, $csize=10, $repetition=0"
attr measurement "$net=simple_scenario, $rep=11, $priceratiovalue=2, $a=1.2, $ctlg=10^3, $F=nrr, $ttl=1000, $D=fix0.1, $R=lru, $csize=10"
attr net simple_scenario
attr network networks.${net=simple_scenario}_network
attr priceratiovalue 2
attr processid 28046
attr rep 11
attr repetition 0
attr replication #0
attr resultdir results
attr runnumber 1219
attr seedset 11
attr ttl 1000

scalar . 	a 	1.2
scalar . 	csize 	10
scalar . 	priceratiovalue 	2
scalar . 	rep 	11
scalar . 	ttl 	1000
scalar simple_scenario_network.content_distribution 	repo-0 	3
scalar simple_scenario_network.content_distribution 	repo-1 	4
scalar simple_scenario_network.content_distribution 	client-0 	0
scalar simple_scenario_network.content_distribution 	repo-0_card 	503
scalar simple_scenario_network.content_distribution 	repo-1_card 	497
scalar simple_scenario_network.statistics 	p_hit 	0.31699643025957
scalar simple_scenario_network.statistics 	interests 	68968.6
scalar simple_scenario_network.statistics 	data 	32867.2
scalar simple_scenario_network.statistics 	hdistance 	1.3048192036874
scalar simple_scenario_network.statistics 	avg_time 	0.001985721162
scalar simple_scenario_network.statistics 	downloads 	180507
scalar simple_scenario_network.statistics 	total_cost 	36312
scalar simple_scenario_network.node[0].core_layer 	interests[0] 	180507
scalar simple_scenario_network.node[0].core_layer 	data[0] 	93143
scalar simple_scenario_network.node[0].core_layer 	repo_int[0] 	71193
scalar simple_scenario_network.node[0].content_store 	p_hit[0] 	0.48399231054751
scalar simple_scenario_network.node[0].content_store 	hits[0] 	87364
scalar simple_scenario_network.node[0].content_store 	misses[0] 	93143
scalar simple_scenario_network.node[1].core_layer 	interests[1] 	42550
scalar simple_scenario_network.node[1].core_layer 	data[1] 	33448
scalar simple_scenario_network.node[1].content_store 	p_hit[1] 	0.21391304347826
scalar simple_scenario_network.node[1].content_store 	hits[1] 	9102
scalar simple_scenario_network.node[1].content_store 	misses[1] 	33448
scalar simple_scenario_network.node[2].core_layer 	interests[2] 	50593
scalar simple_scenario_network.node[2].core_layer 	data[2] 	37745
scalar simple_scenario_network.node[2].content_store 	p_hit[2] 	0.25394817464867
scalar simple_scenario_network.node[2].content_store 	hits[2] 	12848
scalar simple_scenario_network.node[2].content_store 	misses[2] 	37745
scalar simple_scenario_network.node[3].core_layer 	interests[3] 	33448
scalar simple_scenario_network.node[3].core_layer 	repo_load[3] 	33448
scalar simple_scenario_network.node[3].core_layer 	data[3] 	0
scalar simple_scenario_network.node[3].content_store 	p_hit[3] 	0
scalar simple_scenario_network.node[3].content_store 	hits[3] 	0
scalar simple_scenario_network.node[3].content_store 	misses[3] 	33448
scalar simple_scenario_network.node[4].core_layer 	interests[4] 	37745
scalar simple_scenario_network.node[4].core_layer 	repo_load[4] 	37745
scalar simple_scenario_network.node[4].core_layer 	data[4] 	0
scalar simple_scenario_network.node[4].content_store 	p_hit[4] 	0
scalar simple_scenario_network.node[4].content_store 	hits[4] 	0
scalar simple_scenario_network.node[4].content_store 	misses[4] 	37745
scalar simple_scenario_network.client[0] 	hdistance[0] 	1.3048192036874
scalar simple_scenario_network.client[0] 	downloads[0] 	180507
scalar simple_scenario_network.client[0] 	avg_time[0] 	0.001985721162
