version 2
run General-14-20140418-15:05:36-1421
attr D prob_cache
attr F nrr
attr R lru
attr a 1
attr configname General
attr csize 10
attr ctlg 10^6
attr datetime 20140418-15:05:36
attr experiment General
attr inifile omnetpp.ini
attr iterationvars "$net=simple_scenario, $rep=1, $priceratiovalue=3, $a=1, $ctlg=10^6, $F=nrr, $ttl=1000, $D=prob_cache, $R=lru, $csize=10"
attr iterationvars2 "$net=simple_scenario, $rep=1, $priceratiovalue=3, $a=1, $ctlg=10^6, $F=nrr, $ttl=1000, $D=prob_cache, $R=lru, $csize=10, $repetition=0"
attr measurement "$net=simple_scenario, $rep=1, $priceratiovalue=3, $a=1, $ctlg=10^6, $F=nrr, $ttl=1000, $D=prob_cache, $R=lru, $csize=10"
attr net simple_scenario
attr network networks.${net=simple_scenario}_network
attr priceratiovalue 3
attr processid 1421
attr rep 1
attr repetition 0
attr replication #0
attr resultdir results
attr runnumber 14
attr seedset 1
attr ttl 1000

scalar . 	a 	1
scalar . 	csize 	10
scalar . 	priceratiovalue 	3
scalar . 	rep 	1
scalar . 	ttl 	1000
scalar simple_scenario_network.content_distribution 	repo-0 	3
scalar simple_scenario_network.content_distribution 	repo-1 	4
scalar simple_scenario_network.content_distribution 	client-0 	0
scalar simple_scenario_network.content_distribution 	repo-0_card 	500011
scalar simple_scenario_network.content_distribution 	repo-1_card 	499989
scalar simple_scenario_network.statistics 	p_hit 	0.058251279710476
scalar simple_scenario_network.statistics 	interests 	98147.2
scalar simple_scenario_network.statistics 	data 	62132.8
scalar simple_scenario_network.statistics 	hdistance 	2.5664734106358
scalar simple_scenario_network.statistics 	avg_time 	0.001998369111
scalar simple_scenario_network.statistics 	downloads 	180072
scalar simple_scenario_network.statistics 	total_cost 	76324
scalar simple_scenario_network.node[0].core_layer 	interests[0] 	180072
scalar simple_scenario_network.node[0].core_layer 	data[0] 	159178
scalar simple_scenario_network.node[0].core_layer 	repo_int[0] 	151486
scalar simple_scenario_network.node[0].content_store 	p_hit[0] 	0.11603136523169
scalar simple_scenario_network.node[0].content_store 	hits[0] 	20894
scalar simple_scenario_network.node[0].content_store 	misses[0] 	159178
scalar simple_scenario_network.node[1].core_layer 	interests[1] 	77973
scalar simple_scenario_network.node[1].core_layer 	data[1] 	74580
scalar simple_scenario_network.node[1].content_store 	p_hit[1] 	0.043515062906391
scalar simple_scenario_network.node[1].content_store 	hits[1] 	3393
scalar simple_scenario_network.node[1].content_store 	misses[1] 	74580
scalar simple_scenario_network.node[2].core_layer 	interests[2] 	81205
scalar simple_scenario_network.node[2].core_layer 	data[2] 	76906
scalar simple_scenario_network.node[2].content_store 	p_hit[2] 	0.052940089895942
scalar simple_scenario_network.node[2].content_store 	hits[2] 	4299
scalar simple_scenario_network.node[2].content_store 	misses[2] 	76906
scalar simple_scenario_network.node[3].core_layer 	interests[3] 	74580
scalar simple_scenario_network.node[3].core_layer 	repo_load[3] 	74580
scalar simple_scenario_network.node[3].core_layer 	data[3] 	0
scalar simple_scenario_network.node[3].content_store 	p_hit[3] 	0
scalar simple_scenario_network.node[3].content_store 	hits[3] 	0
scalar simple_scenario_network.node[3].content_store 	misses[3] 	74580
scalar simple_scenario_network.node[4].core_layer 	interests[4] 	76906
scalar simple_scenario_network.node[4].core_layer 	repo_load[4] 	76906
scalar simple_scenario_network.node[4].core_layer 	data[4] 	0
scalar simple_scenario_network.node[4].content_store 	p_hit[4] 	0
scalar simple_scenario_network.node[4].content_store 	hits[4] 	0
scalar simple_scenario_network.node[4].content_store 	misses[4] 	76906
scalar simple_scenario_network.client[0] 	hdistance[0] 	2.5664734106358
scalar simple_scenario_network.client[0] 	downloads[0] 	180072
scalar simple_scenario_network.client[0] 	avg_time[0] 	0.001998369111
