version 2
run General-6-20140501-18:37:12-13327
attr D costprob0.01
attr F nrr
attr R lru
attr a 0.1
attr configname General
attr csize 100
attr ctlg 10000
attr datetime 20140501-18:37:12
attr experiment General
attr inifile omnetpp.ini
attr iterationvars "$net=one_cache_scenario_3_links, $rep=7, $priceratiovalue=1, $a=0.1, $ctlg=10000, $F=nrr, $ttl=1000, $D=costprob0.01, $xi=1, $R=lru, $csize=100"
attr iterationvars2 "$net=one_cache_scenario_3_links, $rep=7, $priceratiovalue=1, $a=0.1, $ctlg=10000, $F=nrr, $ttl=1000, $D=costprob0.01, $xi=1, $R=lru, $csize=100, $repetition=0"
attr measurement "$net=one_cache_scenario_3_links, $rep=7, $priceratiovalue=1, $a=0.1, $ctlg=10000, $F=nrr, $ttl=1000, $D=costprob0.01, $xi=1, $R=lru, $csize=100"
attr net one_cache_scenario_3_links
attr network networks.${net=one_cache_scenario_3_links}_network
attr priceratiovalue 1
attr processid 13327
attr rep 7
attr repetition 0
attr replication #0
attr resultdir results
attr runnumber 6
attr seedset 7
attr ttl 1000
attr xi 1

scalar . 	a 	0.1
scalar . 	csize 	100
scalar . 	ctlg 	10000
scalar . 	priceratiovalue 	1
scalar . 	rep 	7
scalar . 	ttl 	1000
scalar . 	xi 	1
scalar one_cache_scenario_3_links_network.content_distribution 	repo-0 	4
scalar one_cache_scenario_3_links_network.content_distribution 	repo-1 	5
scalar one_cache_scenario_3_links_network.content_distribution 	repo-2 	6
scalar one_cache_scenario_3_links_network.content_distribution 	client-0 	0
scalar one_cache_scenario_3_links_network.content_distribution 	repo-0_card 	4314
scalar one_cache_scenario_3_links_network.content_distribution 	repo-1_card 	3202
scalar one_cache_scenario_3_links_network.content_distribution 	repo-2_card 	2484
scalar one_cache_scenario_3_links_network.statistics 	p_hit 	0.0034753507529927
scalar one_cache_scenario_3_links_network.statistics 	interests 	76580.142857143
scalar one_cache_scenario_3_links_network.statistics 	data 	50876
scalar one_cache_scenario_3_links_network.statistics 	hdistance 	1.9792918317781
scalar one_cache_scenario_3_links_network.statistics 	avg_time 	0
scalar one_cache_scenario_3_links_network.statistics 	downloads 	179929
scalar one_cache_scenario_3_links_network.statistics 	total_cost 	100505
scalar one_cache_scenario_3_links_network.statistics 	total_replicas 	12921
scalar one_cache_scenario_3_links_network.statistics 	interests_sent 	179929
scalar one_cache_scenario_3_links_network.node[0].core_layer 	interests[0] 	179929
scalar one_cache_scenario_3_links_network.node[0].core_layer 	data[0] 	178066
scalar one_cache_scenario_3_links_network.node[0].core_layer 	repo_int[0] 	178066
scalar one_cache_scenario_3_links_network.node[0].content_store 	p_hit[0] 	0.010354084110955
scalar one_cache_scenario_3_links_network.node[0].content_store 	hits[0] 	1863
scalar one_cache_scenario_3_links_network.node[0].content_store 	misses[0] 	178066
scalar one_cache_scenario_3_links_network.node[0].content_store 	decision_yes[0] 	1557
scalar one_cache_scenario_3_links_network.node[0].content_store 	decision_no[0] 	176509
scalar one_cache_scenario_3_links_network.node[1].core_layer 	interests[1] 	77561
scalar one_cache_scenario_3_links_network.node[1].core_layer 	data[1] 	77561
scalar one_cache_scenario_3_links_network.node[1].content_store 	p_hit[1] 	0
scalar one_cache_scenario_3_links_network.node[1].content_store 	hits[1] 	0
scalar one_cache_scenario_3_links_network.node[1].content_store 	misses[1] 	77561
scalar one_cache_scenario_3_links_network.node[1].content_store 	decision_yes[1] 	0
scalar one_cache_scenario_3_links_network.node[1].content_store 	decision_no[1] 	77561
scalar one_cache_scenario_3_links_network.node[2].core_layer 	interests[2] 	56698
scalar one_cache_scenario_3_links_network.node[2].core_layer 	data[2] 	56698
scalar one_cache_scenario_3_links_network.node[2].content_store 	p_hit[2] 	0
scalar one_cache_scenario_3_links_network.node[2].content_store 	hits[2] 	0
scalar one_cache_scenario_3_links_network.node[2].content_store 	misses[2] 	56698
scalar one_cache_scenario_3_links_network.node[2].content_store 	decision_yes[2] 	0
scalar one_cache_scenario_3_links_network.node[2].content_store 	decision_no[2] 	56698
scalar one_cache_scenario_3_links_network.node[3].core_layer 	interests[3] 	43807
scalar one_cache_scenario_3_links_network.node[3].core_layer 	data[3] 	43807
scalar one_cache_scenario_3_links_network.node[3].content_store 	p_hit[3] 	0
scalar one_cache_scenario_3_links_network.node[3].content_store 	hits[3] 	0
scalar one_cache_scenario_3_links_network.node[3].content_store 	misses[3] 	43807
scalar one_cache_scenario_3_links_network.node[3].content_store 	decision_yes[3] 	0
scalar one_cache_scenario_3_links_network.node[3].content_store 	decision_no[3] 	43807
scalar one_cache_scenario_3_links_network.node[4].core_layer 	interests[4] 	77561
scalar one_cache_scenario_3_links_network.node[4].core_layer 	repo_load[4] 	77561
scalar one_cache_scenario_3_links_network.node[4].core_layer 	data[4] 	0
scalar one_cache_scenario_3_links_network.node[4].content_store 	p_hit[4] 	0
scalar one_cache_scenario_3_links_network.node[4].content_store 	hits[4] 	0
scalar one_cache_scenario_3_links_network.node[4].content_store 	misses[4] 	77561
scalar one_cache_scenario_3_links_network.node[4].content_store 	decision_yes[4] 	0
scalar one_cache_scenario_3_links_network.node[4].content_store 	decision_no[4] 	77561
scalar one_cache_scenario_3_links_network.node[5].core_layer 	interests[5] 	56698
scalar one_cache_scenario_3_links_network.node[5].core_layer 	repo_load[5] 	56698
scalar one_cache_scenario_3_links_network.node[5].core_layer 	data[5] 	0
scalar one_cache_scenario_3_links_network.node[5].content_store 	p_hit[5] 	0
scalar one_cache_scenario_3_links_network.node[5].content_store 	hits[5] 	0
scalar one_cache_scenario_3_links_network.node[5].content_store 	misses[5] 	56698
scalar one_cache_scenario_3_links_network.node[5].content_store 	decision_yes[5] 	0
scalar one_cache_scenario_3_links_network.node[5].content_store 	decision_no[5] 	56698
scalar one_cache_scenario_3_links_network.node[6].core_layer 	interests[6] 	43807
scalar one_cache_scenario_3_links_network.node[6].core_layer 	repo_load[6] 	43807
scalar one_cache_scenario_3_links_network.node[6].core_layer 	data[6] 	0
scalar one_cache_scenario_3_links_network.node[6].content_store 	p_hit[6] 	0
scalar one_cache_scenario_3_links_network.node[6].content_store 	hits[6] 	0
scalar one_cache_scenario_3_links_network.node[6].content_store 	misses[6] 	43807
scalar one_cache_scenario_3_links_network.node[6].content_store 	decision_yes[6] 	0
scalar one_cache_scenario_3_links_network.node[6].content_store 	decision_no[6] 	43807
scalar one_cache_scenario_3_links_network.client[0] 	hdistance[0] 	1.9792918317781
scalar one_cache_scenario_3_links_network.client[0] 	downloads[0] 	179929
scalar one_cache_scenario_3_links_network.client[0] 	avg_time[0] 	0
scalar one_cache_scenario_3_links_network.client[0] 	interests_sent[0] 	179929
