version 2
run General-372-20140426-20:09:30-13966
attr D costprob0.02
attr F nrr
attr R lru
attr a 1
attr configname General
attr csize 1000
attr ctlg 10^5
attr datetime 20140426-20:09:30
attr experiment General
attr inifile omnetpp.ini
attr iterationvars "$net=one_cache_scenario, $rep=10, $priceratiovalue=2, $a=1, $ctlg=10^5, $F=nrr, $ttl=1000, $D=costprob0.02, $xi=1, $R=lru, $csize=1000"
attr iterationvars2 "$net=one_cache_scenario, $rep=10, $priceratiovalue=2, $a=1, $ctlg=10^5, $F=nrr, $ttl=1000, $D=costprob0.02, $xi=1, $R=lru, $csize=1000, $repetition=0"
attr measurement "$net=one_cache_scenario, $rep=10, $priceratiovalue=2, $a=1, $ctlg=10^5, $F=nrr, $ttl=1000, $D=costprob0.02, $xi=1, $R=lru, $csize=1000"
attr net one_cache_scenario
attr network networks.${net=one_cache_scenario}_network
attr priceratiovalue 2
attr processid 13966
attr rep 10
attr repetition 0
attr replication #0
attr resultdir results
attr runnumber 372
attr seedset 10
attr ttl 1000
attr xi 1

scalar . 	a 	1
scalar . 	csize 	1000
scalar . 	priceratiovalue 	2
scalar . 	rep 	10
scalar . 	ttl 	1000
scalar . 	xi 	1
scalar one_cache_scenario_network.content_distribution 	repo-0 	3
scalar one_cache_scenario_network.content_distribution 	repo-1 	4
scalar one_cache_scenario_network.content_distribution 	client-0 	0
scalar one_cache_scenario_network.content_distribution 	repo-0_card 	49996
scalar one_cache_scenario_network.content_distribution 	repo-1_card 	50004
scalar one_cache_scenario_network.statistics 	p_hit 	0.27302863974784
scalar one_cache_scenario_network.statistics 	interests 	69923.8
scalar one_cache_scenario_network.statistics 	data 	33888.4
scalar one_cache_scenario_network.statistics 	hdistance 	0.94041969840768
scalar one_cache_scenario_network.statistics 	avg_time 	0
scalar one_cache_scenario_network.statistics 	downloads 	180177
scalar one_cache_scenario_network.statistics 	total_cost 	41685
scalar one_cache_scenario_network.statistics 	interests_sent 	180177
scalar one_cache_scenario_network.node[0].core_layer 	interests[0] 	180177
scalar one_cache_scenario_network.node[0].core_layer 	data[0] 	84721
scalar one_cache_scenario_network.node[0].core_layer 	repo_int[0] 	84721
scalar one_cache_scenario_network.node[0].content_store 	p_hit[0] 	0.52979015079616
scalar one_cache_scenario_network.node[0].content_store 	hits[0] 	95456
scalar one_cache_scenario_network.node[0].content_store 	misses[0] 	84721
scalar one_cache_scenario_network.node[0].content_store 	decision_yes[0] 	871
scalar one_cache_scenario_network.node[0].content_store 	decision_no[0] 	83850
scalar one_cache_scenario_network.node[1].core_layer 	interests[1] 	44386
scalar one_cache_scenario_network.node[1].core_layer 	data[1] 	44386
scalar one_cache_scenario_network.node[1].content_store 	p_hit[1] 	0
scalar one_cache_scenario_network.node[1].content_store 	hits[1] 	0
scalar one_cache_scenario_network.node[1].content_store 	misses[1] 	44386
scalar one_cache_scenario_network.node[1].content_store 	decision_yes[1] 	0
scalar one_cache_scenario_network.node[1].content_store 	decision_no[1] 	44386
scalar one_cache_scenario_network.node[2].core_layer 	interests[2] 	40335
scalar one_cache_scenario_network.node[2].core_layer 	data[2] 	40335
scalar one_cache_scenario_network.node[2].content_store 	p_hit[2] 	0
scalar one_cache_scenario_network.node[2].content_store 	hits[2] 	0
scalar one_cache_scenario_network.node[2].content_store 	misses[2] 	40335
scalar one_cache_scenario_network.node[2].content_store 	decision_yes[2] 	0
scalar one_cache_scenario_network.node[2].content_store 	decision_no[2] 	40335
scalar one_cache_scenario_network.node[3].core_layer 	interests[3] 	44386
scalar one_cache_scenario_network.node[3].core_layer 	repo_load[3] 	44386
scalar one_cache_scenario_network.node[3].core_layer 	data[3] 	0
scalar one_cache_scenario_network.node[3].content_store 	p_hit[3] 	0
scalar one_cache_scenario_network.node[3].content_store 	hits[3] 	0
scalar one_cache_scenario_network.node[3].content_store 	misses[3] 	44386
scalar one_cache_scenario_network.node[3].content_store 	decision_yes[3] 	0
scalar one_cache_scenario_network.node[3].content_store 	decision_no[3] 	44386
scalar one_cache_scenario_network.node[4].core_layer 	interests[4] 	40335
scalar one_cache_scenario_network.node[4].core_layer 	repo_load[4] 	40335
scalar one_cache_scenario_network.node[4].core_layer 	data[4] 	0
scalar one_cache_scenario_network.node[4].content_store 	p_hit[4] 	0
scalar one_cache_scenario_network.node[4].content_store 	hits[4] 	0
scalar one_cache_scenario_network.node[4].content_store 	misses[4] 	40335
scalar one_cache_scenario_network.node[4].content_store 	decision_yes[4] 	0
scalar one_cache_scenario_network.node[4].content_store 	decision_no[4] 	40335
scalar one_cache_scenario_network.client[0] 	hdistance[0] 	0.94041969840768
scalar one_cache_scenario_network.client[0] 	downloads[0] 	180177
scalar one_cache_scenario_network.client[0] 	avg_time[0] 	0
scalar one_cache_scenario_network.client[0] 	interests_sent[0] 	180177
