version 2
run General-217-20140502-01:28:01-9095
attr D fix0.1
attr F nrr
attr R lru
attr a 0.8
attr configname General
attr csize 1e3
attr ctlg 1e5
attr datetime 20140502-01:28:01
attr experiment General
attr inifile omnetpp.ini
attr iterationvars "$net=three_caches_scenario_3_links, $rep=1, $priceratiovalue=2, $weights=0.7_0.15_0.15, $a=0.8, $ctlg=1e5, $F=nrr, $ttl=1000, $D=fix0.1, $xi=1, $R=lru, $csize=1e3"
attr iterationvars2 "$net=three_caches_scenario_3_links, $rep=1, $priceratiovalue=2, $weights=0.7_0.15_0.15, $a=0.8, $ctlg=1e5, $F=nrr, $ttl=1000, $D=fix0.1, $xi=1, $R=lru, $csize=1e3, $repetition=0"
attr measurement "$net=three_caches_scenario_3_links, $rep=1, $priceratiovalue=2, $weights=0.7_0.15_0.15, $a=0.8, $ctlg=1e5, $F=nrr, $ttl=1000, $D=fix0.1, $xi=1, $R=lru, $csize=1e3"
attr net three_caches_scenario_3_links
attr network networks.${net=three_caches_scenario_3_links}_network
attr priceratiovalue 2
attr processid 9095
attr rep 1
attr repetition 0
attr replication #0
attr resultdir results
attr runnumber 217
attr seedset 1
attr ttl 1000
attr weights 0.7_0.15_0.15
attr xi 1

scalar . 	a 	0.8
scalar . 	csize 	1e3
scalar . 	ctlg 	1e5
scalar . 	priceratiovalue 	2
scalar . 	rep 	1
scalar . 	ttl 	1000
scalar . 	xi 	1
scalar three_caches_scenario_3_links_network.content_distribution 	repo-0 	4
scalar three_caches_scenario_3_links_network.content_distribution 	repo-1 	5
scalar three_caches_scenario_3_links_network.content_distribution 	repo-2 	6
scalar three_caches_scenario_3_links_network.content_distribution 	client-0 	0
scalar three_caches_scenario_3_links_network.content_distribution 	repo-0_card 	70018
scalar three_caches_scenario_3_links_network.content_distribution 	repo-1_card 	15023
scalar three_caches_scenario_3_links_network.content_distribution 	repo-2_card 	14959
scalar three_caches_scenario_3_links_network.statistics 	p_hit 	0.083017422121944
scalar three_caches_scenario_3_links_network.statistics 	interests 	67115
scalar three_caches_scenario_3_links_network.statistics 	data 	41414.857142857
scalar three_caches_scenario_3_links_network.statistics 	hdistance 	1.8121855909639
scalar three_caches_scenario_3_links_network.statistics 	avg_time 	0
scalar three_caches_scenario_3_links_network.statistics 	downloads 	179901
scalar three_caches_scenario_3_links_network.statistics 	total_cost 	53964
scalar three_caches_scenario_3_links_network.statistics 	total_replicas 	100000
scalar three_caches_scenario_3_links_network.statistics 	interests_sent 	179901
scalar three_caches_scenario_3_links_network.node[0].core_layer 	interests[0] 	179901
scalar three_caches_scenario_3_links_network.node[0].core_layer 	data[0] 	149005
scalar three_caches_scenario_3_links_network.node[0].core_layer 	repo_int[0] 	140899
scalar three_caches_scenario_3_links_network.node[0].content_store 	p_hit[0] 	0.17173890083991
scalar three_caches_scenario_3_links_network.node[0].content_store 	hits[0] 	30896
scalar three_caches_scenario_3_links_network.node[0].content_store 	misses[0] 	149005
scalar three_caches_scenario_3_links_network.node[0].content_store 	decision_yes[0] 	15075
scalar three_caches_scenario_3_links_network.node[0].content_store 	decision_no[0] 	133930
scalar three_caches_scenario_3_links_network.node[1].core_layer 	interests[1] 	104789
scalar three_caches_scenario_3_links_network.node[1].core_layer 	data[1] 	104789
scalar three_caches_scenario_3_links_network.node[1].content_store 	p_hit[1] 	0
scalar three_caches_scenario_3_links_network.node[1].content_store 	hits[1] 	0
scalar three_caches_scenario_3_links_network.node[1].content_store 	misses[1] 	104789
scalar three_caches_scenario_3_links_network.node[1].content_store 	decision_yes[1] 	0
scalar three_caches_scenario_3_links_network.node[1].content_store 	decision_no[1] 	104789
scalar three_caches_scenario_3_links_network.node[2].core_layer 	interests[2] 	22748
scalar three_caches_scenario_3_links_network.node[2].core_layer 	data[2] 	18256
scalar three_caches_scenario_3_links_network.node[2].content_store 	p_hit[2] 	0.19746790926675
scalar three_caches_scenario_3_links_network.node[2].content_store 	hits[2] 	4492
scalar three_caches_scenario_3_links_network.node[2].content_store 	misses[2] 	18256
scalar three_caches_scenario_3_links_network.node[2].content_store 	decision_yes[2] 	1904
scalar three_caches_scenario_3_links_network.node[2].content_store 	decision_no[2] 	16352
scalar three_caches_scenario_3_links_network.node[3].core_layer 	interests[3] 	21468
scalar three_caches_scenario_3_links_network.node[3].core_layer 	data[3] 	17854
scalar three_caches_scenario_3_links_network.node[3].content_store 	p_hit[3] 	0.16834358114403
scalar three_caches_scenario_3_links_network.node[3].content_store 	hits[3] 	3614
scalar three_caches_scenario_3_links_network.node[3].content_store 	misses[3] 	17854
scalar three_caches_scenario_3_links_network.node[3].content_store 	decision_yes[3] 	1755
scalar three_caches_scenario_3_links_network.node[3].content_store 	decision_no[3] 	16099
scalar three_caches_scenario_3_links_network.node[4].core_layer 	interests[4] 	104789
scalar three_caches_scenario_3_links_network.node[4].core_layer 	repo_load[4] 	104789
scalar three_caches_scenario_3_links_network.node[4].core_layer 	data[4] 	0
scalar three_caches_scenario_3_links_network.node[4].content_store 	p_hit[4] 	0
scalar three_caches_scenario_3_links_network.node[4].content_store 	hits[4] 	0
scalar three_caches_scenario_3_links_network.node[4].content_store 	misses[4] 	104789
scalar three_caches_scenario_3_links_network.node[4].content_store 	decision_yes[4] 	0
scalar three_caches_scenario_3_links_network.node[4].content_store 	decision_no[4] 	104789
scalar three_caches_scenario_3_links_network.node[5].core_layer 	interests[5] 	18256
scalar three_caches_scenario_3_links_network.node[5].core_layer 	repo_load[5] 	18256
scalar three_caches_scenario_3_links_network.node[5].core_layer 	data[5] 	0
scalar three_caches_scenario_3_links_network.node[5].content_store 	p_hit[5] 	0
scalar three_caches_scenario_3_links_network.node[5].content_store 	hits[5] 	0
scalar three_caches_scenario_3_links_network.node[5].content_store 	misses[5] 	18256
scalar three_caches_scenario_3_links_network.node[5].content_store 	decision_yes[5] 	0
scalar three_caches_scenario_3_links_network.node[5].content_store 	decision_no[5] 	18256
scalar three_caches_scenario_3_links_network.node[6].core_layer 	interests[6] 	17854
scalar three_caches_scenario_3_links_network.node[6].core_layer 	repo_load[6] 	17854
scalar three_caches_scenario_3_links_network.node[6].core_layer 	data[6] 	0
scalar three_caches_scenario_3_links_network.node[6].content_store 	p_hit[6] 	0
scalar three_caches_scenario_3_links_network.node[6].content_store 	hits[6] 	0
scalar three_caches_scenario_3_links_network.node[6].content_store 	misses[6] 	17854
scalar three_caches_scenario_3_links_network.node[6].content_store 	decision_yes[6] 	0
scalar three_caches_scenario_3_links_network.node[6].content_store 	decision_no[6] 	17854
scalar three_caches_scenario_3_links_network.client[0] 	hdistance[0] 	1.8121855909639
scalar three_caches_scenario_3_links_network.client[0] 	downloads[0] 	179901
scalar three_caches_scenario_3_links_network.client[0] 	avg_time[0] 	0
scalar three_caches_scenario_3_links_network.client[0] 	interests_sent[0] 	179901
