version 2
run General-8390-20140425-12:49:09-10917
attr D prob_cache
attr F nrr
attr R lru
attr a 1.2
attr configname General
attr csize 30
attr ctlg 10^3
attr datetime 20140425-12:49:09
attr experiment General
attr inifile omnetpp.ini
attr iterationvars "$net=one_cache_scenario, $rep=20, $priceratiovalue=10, $a=1.2, $ctlg=10^3, $F=nrr, $ttl=1000, $D=prob_cache, $R=lru, $csize=30"
attr iterationvars2 "$net=one_cache_scenario, $rep=20, $priceratiovalue=10, $a=1.2, $ctlg=10^3, $F=nrr, $ttl=1000, $D=prob_cache, $R=lru, $csize=30, $repetition=0"
attr measurement "$net=one_cache_scenario, $rep=20, $priceratiovalue=10, $a=1.2, $ctlg=10^3, $F=nrr, $ttl=1000, $D=prob_cache, $R=lru, $csize=30"
attr net one_cache_scenario
attr network networks.${net=one_cache_scenario}_network
attr priceratiovalue 10
attr processid 10917
attr rep 20
attr repetition 0
attr replication #0
attr resultdir results
attr runnumber 8390
attr seedset 20
attr ttl 1000

scalar . 	a 	1.2
scalar . 	csize 	30
scalar . 	priceratiovalue 	10
scalar . 	rep 	20
scalar . 	ttl 	1000
scalar one_cache_scenario_network.content_distribution 	repo-0 	3
scalar one_cache_scenario_network.content_distribution 	repo-1 	4
scalar one_cache_scenario_network.content_distribution 	client-0 	0
scalar one_cache_scenario_network.content_distribution 	repo-0_card 	474
scalar one_cache_scenario_network.content_distribution 	repo-1_card 	526
scalar one_cache_scenario_network.statistics 	p_hit 	0.38446586082979
scalar one_cache_scenario_network.statistics 	interests 	61220
scalar one_cache_scenario_network.statistics 	data 	25122
scalar one_cache_scenario_network.statistics 	hdistance 	0.69593883317635
scalar one_cache_scenario_network.statistics 	avg_time 	0
scalar one_cache_scenario_network.statistics 	downloads 	180490
scalar one_cache_scenario_network.statistics 	total_cost 	34009
scalar one_cache_scenario_network.statistics 	interests_sent 	180490
scalar one_cache_scenario_network.node[0].core_layer 	interests[0] 	180490
scalar one_cache_scenario_network.node[0].core_layer 	data[0] 	62805
scalar one_cache_scenario_network.node[0].core_layer 	repo_int[0] 	62805
scalar one_cache_scenario_network.node[0].content_store 	p_hit[0] 	0.65203058341182
scalar one_cache_scenario_network.node[0].content_store 	hits[0] 	117685
scalar one_cache_scenario_network.node[0].content_store 	misses[0] 	62805
scalar one_cache_scenario_network.node[0].content_store 	decision_yes[0] 	6450
scalar one_cache_scenario_network.node[0].content_store 	decision_no[0] 	56355
scalar one_cache_scenario_network.node[1].core_layer 	interests[1] 	28216
scalar one_cache_scenario_network.node[1].core_layer 	data[1] 	28216
scalar one_cache_scenario_network.node[1].content_store 	p_hit[1] 	0
scalar one_cache_scenario_network.node[1].content_store 	hits[1] 	0
scalar one_cache_scenario_network.node[1].content_store 	misses[1] 	28216
scalar one_cache_scenario_network.node[1].content_store 	decision_yes[1] 	0
scalar one_cache_scenario_network.node[1].content_store 	decision_no[1] 	28216
scalar one_cache_scenario_network.node[2].core_layer 	interests[2] 	34589
scalar one_cache_scenario_network.node[2].core_layer 	data[2] 	34589
scalar one_cache_scenario_network.node[2].content_store 	p_hit[2] 	0
scalar one_cache_scenario_network.node[2].content_store 	hits[2] 	0
scalar one_cache_scenario_network.node[2].content_store 	misses[2] 	34589
scalar one_cache_scenario_network.node[2].content_store 	decision_yes[2] 	0
scalar one_cache_scenario_network.node[2].content_store 	decision_no[2] 	34589
scalar one_cache_scenario_network.node[3].core_layer 	interests[3] 	28216
scalar one_cache_scenario_network.node[3].core_layer 	repo_load[3] 	28216
scalar one_cache_scenario_network.node[3].core_layer 	data[3] 	0
scalar one_cache_scenario_network.node[3].content_store 	p_hit[3] 	0
scalar one_cache_scenario_network.node[3].content_store 	hits[3] 	0
scalar one_cache_scenario_network.node[3].content_store 	misses[3] 	28216
scalar one_cache_scenario_network.node[3].content_store 	decision_yes[3] 	0
scalar one_cache_scenario_network.node[3].content_store 	decision_no[3] 	28216
scalar one_cache_scenario_network.node[4].core_layer 	interests[4] 	34589
scalar one_cache_scenario_network.node[4].core_layer 	repo_load[4] 	34589
scalar one_cache_scenario_network.node[4].core_layer 	data[4] 	0
scalar one_cache_scenario_network.node[4].content_store 	p_hit[4] 	0
scalar one_cache_scenario_network.node[4].content_store 	hits[4] 	0
scalar one_cache_scenario_network.node[4].content_store 	misses[4] 	34589
scalar one_cache_scenario_network.node[4].content_store 	decision_yes[4] 	0
scalar one_cache_scenario_network.node[4].content_store 	decision_no[4] 	34589
scalar one_cache_scenario_network.client[0] 	hdistance[0] 	0.69593883317635
scalar one_cache_scenario_network.client[0] 	downloads[0] 	180490
scalar one_cache_scenario_network.client[0] 	avg_time[0] 	0
scalar one_cache_scenario_network.client[0] 	interests_sent[0] 	180490
