version 2
run General-193-20140502-11:06:47-13976
attr D fix0.1
attr F nrr
attr R lru
attr a 1
attr configname General
attr csize 1e3
attr ctlg 1e5
attr datetime 20140502-11:06:47
attr experiment General
attr inifile omnetpp.ini
attr iterationvars "$net=three_caches_scenario_3_links, $rep=2, $priceratiovalue=2, $weights=0.333_0.333_0.334, $a=1, $ctlg=1e5, $F=nrr, $ttl=1000, $D=fix0.1, $xi=1, $R=lru, $csize=1e3"
attr iterationvars2 "$net=three_caches_scenario_3_links, $rep=2, $priceratiovalue=2, $weights=0.333_0.333_0.334, $a=1, $ctlg=1e5, $F=nrr, $ttl=1000, $D=fix0.1, $xi=1, $R=lru, $csize=1e3, $repetition=0"
attr measurement "$net=three_caches_scenario_3_links, $rep=2, $priceratiovalue=2, $weights=0.333_0.333_0.334, $a=1, $ctlg=1e5, $F=nrr, $ttl=1000, $D=fix0.1, $xi=1, $R=lru, $csize=1e3"
attr net three_caches_scenario_3_links
attr network networks.${net=three_caches_scenario_3_links}_network
attr priceratiovalue 2
attr processid 13976
attr rep 2
attr repetition 0
attr replication #0
attr resultdir results
attr runnumber 193
attr seedset 2
attr ttl 1000
attr weights 0.333_0.333_0.334
attr xi 1

scalar . 	a 	1
scalar . 	csize 	1e3
scalar . 	ctlg 	1e5
scalar . 	priceratiovalue 	2
scalar . 	rep 	2
scalar . 	ttl 	1000
scalar . 	xi 	1
scalar three_caches_scenario_3_links_network.content_distribution 	repo-0 	4
scalar three_caches_scenario_3_links_network.content_distribution 	repo-1 	5
scalar three_caches_scenario_3_links_network.content_distribution 	repo-2 	6
scalar three_caches_scenario_3_links_network.content_distribution 	client-0 	0
scalar three_caches_scenario_3_links_network.content_distribution 	repo-0_card 	33264
scalar three_caches_scenario_3_links_network.content_distribution 	repo-1_card 	33272
scalar three_caches_scenario_3_links_network.content_distribution 	repo-2_card 	33464
scalar three_caches_scenario_3_links_network.statistics 	p_hit 	0.25976331034787
scalar three_caches_scenario_3_links_network.statistics 	interests 	51834
scalar three_caches_scenario_3_links_network.statistics 	data 	26129.285714286
scalar three_caches_scenario_3_links_network.statistics 	hdistance 	1.3160620897779
scalar three_caches_scenario_3_links_network.statistics 	avg_time 	0
scalar three_caches_scenario_3_links_network.statistics 	downloads 	179933
scalar three_caches_scenario_3_links_network.statistics 	total_cost 	81181
scalar three_caches_scenario_3_links_network.statistics 	total_replicas 	100000
scalar three_caches_scenario_3_links_network.statistics 	interests_sent 	179933
scalar three_caches_scenario_3_links_network.node[0].core_layer 	interests[0] 	179933
scalar three_caches_scenario_3_links_network.node[0].core_layer 	data[0] 	97224
scalar three_caches_scenario_3_links_network.node[0].core_layer 	repo_int[0] 	85681
scalar three_caches_scenario_3_links_network.node[0].content_store 	p_hit[0] 	0.45966554217403
scalar three_caches_scenario_3_links_network.node[0].content_store 	hits[0] 	82709
scalar three_caches_scenario_3_links_network.node[0].content_store 	misses[0] 	97224
scalar three_caches_scenario_3_links_network.node[0].content_store 	decision_yes[0] 	9744
scalar three_caches_scenario_3_links_network.node[0].content_store 	decision_no[0] 	87480
scalar three_caches_scenario_3_links_network.node[1].core_layer 	interests[1] 	31783
scalar three_caches_scenario_3_links_network.node[1].core_layer 	data[1] 	31783
scalar three_caches_scenario_3_links_network.node[1].content_store 	p_hit[1] 	0
scalar three_caches_scenario_3_links_network.node[1].content_store 	hits[1] 	0
scalar three_caches_scenario_3_links_network.node[1].content_store 	misses[1] 	31783
scalar three_caches_scenario_3_links_network.node[1].content_store 	decision_yes[1] 	0
scalar three_caches_scenario_3_links_network.node[1].content_store 	decision_no[1] 	31783
scalar three_caches_scenario_3_links_network.node[2].core_layer 	interests[2] 	32269
scalar three_caches_scenario_3_links_network.node[2].core_layer 	data[2] 	26615
scalar three_caches_scenario_3_links_network.node[2].content_store 	p_hit[2] 	0.17521460224984
scalar three_caches_scenario_3_links_network.node[2].content_store 	hits[2] 	5654
scalar three_caches_scenario_3_links_network.node[2].content_store 	misses[2] 	26615
scalar three_caches_scenario_3_links_network.node[2].content_store 	decision_yes[2] 	2759
scalar three_caches_scenario_3_links_network.node[2].content_store 	decision_no[2] 	23856
scalar three_caches_scenario_3_links_network.node[3].core_layer 	interests[3] 	33172
scalar three_caches_scenario_3_links_network.node[3].core_layer 	data[3] 	27283
scalar three_caches_scenario_3_links_network.node[3].content_store 	p_hit[3] 	0.177529241529
scalar three_caches_scenario_3_links_network.node[3].content_store 	hits[3] 	5889
scalar three_caches_scenario_3_links_network.node[3].content_store 	misses[3] 	27283
scalar three_caches_scenario_3_links_network.node[3].content_store 	decision_yes[3] 	2647
scalar three_caches_scenario_3_links_network.node[3].content_store 	decision_no[3] 	24636
scalar three_caches_scenario_3_links_network.node[4].core_layer 	interests[4] 	31783
scalar three_caches_scenario_3_links_network.node[4].core_layer 	repo_load[4] 	31783
scalar three_caches_scenario_3_links_network.node[4].core_layer 	data[4] 	0
scalar three_caches_scenario_3_links_network.node[4].content_store 	p_hit[4] 	0
scalar three_caches_scenario_3_links_network.node[4].content_store 	hits[4] 	0
scalar three_caches_scenario_3_links_network.node[4].content_store 	misses[4] 	31783
scalar three_caches_scenario_3_links_network.node[4].content_store 	decision_yes[4] 	0
scalar three_caches_scenario_3_links_network.node[4].content_store 	decision_no[4] 	31783
scalar three_caches_scenario_3_links_network.node[5].core_layer 	interests[5] 	26615
scalar three_caches_scenario_3_links_network.node[5].core_layer 	repo_load[5] 	26615
scalar three_caches_scenario_3_links_network.node[5].core_layer 	data[5] 	0
scalar three_caches_scenario_3_links_network.node[5].content_store 	p_hit[5] 	0
scalar three_caches_scenario_3_links_network.node[5].content_store 	hits[5] 	0
scalar three_caches_scenario_3_links_network.node[5].content_store 	misses[5] 	26615
scalar three_caches_scenario_3_links_network.node[5].content_store 	decision_yes[5] 	0
scalar three_caches_scenario_3_links_network.node[5].content_store 	decision_no[5] 	26615
scalar three_caches_scenario_3_links_network.node[6].core_layer 	interests[6] 	27283
scalar three_caches_scenario_3_links_network.node[6].core_layer 	repo_load[6] 	27283
scalar three_caches_scenario_3_links_network.node[6].core_layer 	data[6] 	0
scalar three_caches_scenario_3_links_network.node[6].content_store 	p_hit[6] 	0
scalar three_caches_scenario_3_links_network.node[6].content_store 	hits[6] 	0
scalar three_caches_scenario_3_links_network.node[6].content_store 	misses[6] 	27283
scalar three_caches_scenario_3_links_network.node[6].content_store 	decision_yes[6] 	0
scalar three_caches_scenario_3_links_network.node[6].content_store 	decision_no[6] 	27283
scalar three_caches_scenario_3_links_network.client[0] 	hdistance[0] 	1.3160620897779
scalar three_caches_scenario_3_links_network.client[0] 	downloads[0] 	179933
scalar three_caches_scenario_3_links_network.client[0] 	avg_time[0] 	0
scalar three_caches_scenario_3_links_network.client[0] 	interests_sent[0] 	179933
