version 2
run General-1503-20140502-03:54:58-10422
attr D fix0.5
attr F nrr
attr R lru
attr a 1.2
attr configname General
attr csize 1e3
attr ctlg 1e5
attr datetime 20140502-03:54:58
attr experiment General
attr inifile omnetpp.ini
attr iterationvars "$net=three_caches_scenario_3_links, $rep=3, $priceratiovalue=5, $weights=0.2_0.4_0.4, $a=1.2, $ctlg=1e5, $F=nrr, $ttl=1000, $D=fix0.5, $xi=1, $R=lru, $csize=1e3"
attr iterationvars2 "$net=three_caches_scenario_3_links, $rep=3, $priceratiovalue=5, $weights=0.2_0.4_0.4, $a=1.2, $ctlg=1e5, $F=nrr, $ttl=1000, $D=fix0.5, $xi=1, $R=lru, $csize=1e3, $repetition=0"
attr measurement "$net=three_caches_scenario_3_links, $rep=3, $priceratiovalue=5, $weights=0.2_0.4_0.4, $a=1.2, $ctlg=1e5, $F=nrr, $ttl=1000, $D=fix0.5, $xi=1, $R=lru, $csize=1e3"
attr net three_caches_scenario_3_links
attr network networks.${net=three_caches_scenario_3_links}_network
attr priceratiovalue 5
attr processid 10422
attr rep 3
attr repetition 0
attr replication #0
attr resultdir results
attr runnumber 1503
attr seedset 3
attr ttl 1000
attr weights 0.2_0.4_0.4
attr xi 1

scalar . 	a 	1.2
scalar . 	csize 	1e3
scalar . 	ctlg 	1e5
scalar . 	priceratiovalue 	5
scalar . 	rep 	3
scalar . 	ttl 	1000
scalar . 	xi 	1
scalar three_caches_scenario_3_links_network.content_distribution 	repo-0 	4
scalar three_caches_scenario_3_links_network.content_distribution 	repo-1 	5
scalar three_caches_scenario_3_links_network.content_distribution 	repo-2 	6
scalar three_caches_scenario_3_links_network.content_distribution 	client-0 	0
scalar three_caches_scenario_3_links_network.content_distribution 	repo-0_card 	20144
scalar three_caches_scenario_3_links_network.content_distribution 	repo-1_card 	39732
scalar three_caches_scenario_3_links_network.content_distribution 	repo-2_card 	40124
scalar three_caches_scenario_3_links_network.statistics 	p_hit 	0.52278306086037
scalar three_caches_scenario_3_links_network.statistics 	interests 	38352.428571429
scalar three_caches_scenario_3_links_network.statistics 	data 	12662
scalar three_caches_scenario_3_links_network.statistics 	hdistance 	0.66061846268482
scalar three_caches_scenario_3_links_network.statistics 	avg_time 	0
scalar three_caches_scenario_3_links_network.statistics 	downloads 	179833
scalar three_caches_scenario_3_links_network.statistics 	total_cost 	89851
scalar three_caches_scenario_3_links_network.statistics 	total_replicas 	100000
scalar three_caches_scenario_3_links_network.statistics 	interests_sent 	179833
scalar three_caches_scenario_3_links_network.node[0].core_layer 	interests[0] 	179833
scalar three_caches_scenario_3_links_network.node[0].core_layer 	data[0] 	49151
scalar three_caches_scenario_3_links_network.node[0].core_layer 	repo_int[0] 	39483
scalar three_caches_scenario_3_links_network.node[0].content_store 	p_hit[0] 	0.7266853135965
scalar three_caches_scenario_3_links_network.node[0].content_store 	hits[0] 	130682
scalar three_caches_scenario_3_links_network.node[0].content_store 	misses[0] 	49151
scalar three_caches_scenario_3_links_network.node[0].content_store 	decision_yes[0] 	24931
scalar three_caches_scenario_3_links_network.node[0].content_store 	decision_no[0] 	24220
scalar three_caches_scenario_3_links_network.node[1].core_layer 	interests[1] 	9316
scalar three_caches_scenario_3_links_network.node[1].core_layer 	data[1] 	9316
scalar three_caches_scenario_3_links_network.node[1].content_store 	p_hit[1] 	0
scalar three_caches_scenario_3_links_network.node[1].content_store 	hits[1] 	0
scalar three_caches_scenario_3_links_network.node[1].content_store 	misses[1] 	9316
scalar three_caches_scenario_3_links_network.node[1].content_store 	decision_yes[1] 	0
scalar three_caches_scenario_3_links_network.node[1].content_store 	decision_no[1] 	9316
scalar three_caches_scenario_3_links_network.node[2].core_layer 	interests[2] 	20270
scalar three_caches_scenario_3_links_network.node[2].core_layer 	data[2] 	15246
scalar three_caches_scenario_3_links_network.node[2].content_store 	p_hit[2] 	0.24785397138629
scalar three_caches_scenario_3_links_network.node[2].content_store 	hits[2] 	5024
scalar three_caches_scenario_3_links_network.node[2].content_store 	misses[2] 	15246
scalar three_caches_scenario_3_links_network.node[2].content_store 	decision_yes[2] 	7636
scalar three_caches_scenario_3_links_network.node[2].content_store 	decision_no[2] 	7610
scalar three_caches_scenario_3_links_network.node[3].core_layer 	interests[3] 	19565
scalar three_caches_scenario_3_links_network.node[3].core_layer 	data[3] 	14921
scalar three_caches_scenario_3_links_network.node[3].content_store 	p_hit[3] 	0.23736263736264
scalar three_caches_scenario_3_links_network.node[3].content_store 	hits[3] 	4644
scalar three_caches_scenario_3_links_network.node[3].content_store 	misses[3] 	14921
scalar three_caches_scenario_3_links_network.node[3].content_store 	decision_yes[3] 	7534
scalar three_caches_scenario_3_links_network.node[3].content_store 	decision_no[3] 	7387
scalar three_caches_scenario_3_links_network.node[4].core_layer 	interests[4] 	9316
scalar three_caches_scenario_3_links_network.node[4].core_layer 	repo_load[4] 	9316
scalar three_caches_scenario_3_links_network.node[4].core_layer 	data[4] 	0
scalar three_caches_scenario_3_links_network.node[4].content_store 	p_hit[4] 	0
scalar three_caches_scenario_3_links_network.node[4].content_store 	hits[4] 	0
scalar three_caches_scenario_3_links_network.node[4].content_store 	misses[4] 	9316
scalar three_caches_scenario_3_links_network.node[4].content_store 	decision_yes[4] 	0
scalar three_caches_scenario_3_links_network.node[4].content_store 	decision_no[4] 	9316
scalar three_caches_scenario_3_links_network.node[5].core_layer 	interests[5] 	15246
scalar three_caches_scenario_3_links_network.node[5].core_layer 	repo_load[5] 	15246
scalar three_caches_scenario_3_links_network.node[5].core_layer 	data[5] 	0
scalar three_caches_scenario_3_links_network.node[5].content_store 	p_hit[5] 	0
scalar three_caches_scenario_3_links_network.node[5].content_store 	hits[5] 	0
scalar three_caches_scenario_3_links_network.node[5].content_store 	misses[5] 	15246
scalar three_caches_scenario_3_links_network.node[5].content_store 	decision_yes[5] 	0
scalar three_caches_scenario_3_links_network.node[5].content_store 	decision_no[5] 	15246
scalar three_caches_scenario_3_links_network.node[6].core_layer 	interests[6] 	14921
scalar three_caches_scenario_3_links_network.node[6].core_layer 	repo_load[6] 	14921
scalar three_caches_scenario_3_links_network.node[6].core_layer 	data[6] 	0
scalar three_caches_scenario_3_links_network.node[6].content_store 	p_hit[6] 	0
scalar three_caches_scenario_3_links_network.node[6].content_store 	hits[6] 	0
scalar three_caches_scenario_3_links_network.node[6].content_store 	misses[6] 	14921
scalar three_caches_scenario_3_links_network.node[6].content_store 	decision_yes[6] 	0
scalar three_caches_scenario_3_links_network.node[6].content_store 	decision_no[6] 	14921
scalar three_caches_scenario_3_links_network.client[0] 	hdistance[0] 	0.66061846268482
scalar three_caches_scenario_3_links_network.client[0] 	downloads[0] 	179833
scalar three_caches_scenario_3_links_network.client[0] 	avg_time[0] 	0
scalar three_caches_scenario_3_links_network.client[0] 	interests_sent[0] 	179833
