version 2
run General-381-20140502-01:46:36-9265
attr D fix0.001
attr F nrr
attr R lru
attr a 1
attr configname General
attr csize 1e3
attr ctlg 1e5
attr datetime 20140502-01:46:36
attr experiment General
attr inifile omnetpp.ini
attr iterationvars "$net=three_caches_scenario_3_links, $rep=1, $priceratiovalue=5, $weights=0.7_0.15_0.15, $a=1, $ctlg=1e5, $F=nrr, $ttl=1000, $D=fix0.001, $xi=1, $R=lru, $csize=1e3"
attr iterationvars2 "$net=three_caches_scenario_3_links, $rep=1, $priceratiovalue=5, $weights=0.7_0.15_0.15, $a=1, $ctlg=1e5, $F=nrr, $ttl=1000, $D=fix0.001, $xi=1, $R=lru, $csize=1e3, $repetition=0"
attr measurement "$net=three_caches_scenario_3_links, $rep=1, $priceratiovalue=5, $weights=0.7_0.15_0.15, $a=1, $ctlg=1e5, $F=nrr, $ttl=1000, $D=fix0.001, $xi=1, $R=lru, $csize=1e3"
attr net three_caches_scenario_3_links
attr network networks.${net=three_caches_scenario_3_links}_network
attr priceratiovalue 5
attr processid 9265
attr rep 1
attr repetition 0
attr replication #0
attr resultdir results
attr runnumber 381
attr seedset 1
attr ttl 1000
attr weights 0.7_0.15_0.15
attr xi 1

scalar . 	a 	1
scalar . 	csize 	1e3
scalar . 	ctlg 	1e5
scalar . 	priceratiovalue 	5
scalar . 	rep 	1
scalar . 	ttl 	1000
scalar . 	xi 	1
scalar three_caches_scenario_3_links_network.content_distribution 	repo-0 	4
scalar three_caches_scenario_3_links_network.content_distribution 	repo-1 	5
scalar three_caches_scenario_3_links_network.content_distribution 	repo-2 	6
scalar three_caches_scenario_3_links_network.content_distribution 	client-0 	0
scalar three_caches_scenario_3_links_network.content_distribution 	repo-0_card 	70018
scalar three_caches_scenario_3_links_network.content_distribution 	repo-1_card 	15023
scalar three_caches_scenario_3_links_network.content_distribution 	repo-2_card 	14959
scalar three_caches_scenario_3_links_network.statistics 	p_hit 	0.27352602211395
scalar three_caches_scenario_3_links_network.statistics 	interests 	50078.285714286
scalar three_caches_scenario_3_links_network.statistics 	data 	24409.285714286
scalar three_caches_scenario_3_links_network.statistics 	hdistance 	1.0770022762309
scalar three_caches_scenario_3_links_network.statistics 	avg_time 	0
scalar three_caches_scenario_3_links_network.statistics 	downloads 	179683
scalar three_caches_scenario_3_links_network.statistics 	total_cost 	67550
scalar three_caches_scenario_3_links_network.statistics 	total_replicas 	100000
scalar three_caches_scenario_3_links_network.statistics 	interests_sent 	179683
scalar three_caches_scenario_3_links_network.node[0].core_layer 	interests[0] 	179683
scalar three_caches_scenario_3_links_network.node[0].core_layer 	data[0] 	87066
scalar three_caches_scenario_3_links_network.node[0].core_layer 	repo_int[0] 	83799
scalar three_caches_scenario_3_links_network.node[0].content_store 	p_hit[0] 	0.51544664770735
scalar three_caches_scenario_3_links_network.node[0].content_store 	hits[0] 	92617
scalar three_caches_scenario_3_links_network.node[0].content_store 	misses[0] 	87066
scalar three_caches_scenario_3_links_network.node[0].content_store 	decision_yes[0] 	93
scalar three_caches_scenario_3_links_network.node[0].content_store 	decision_no[0] 	86973
scalar three_caches_scenario_3_links_network.node[1].core_layer 	interests[1] 	61145
scalar three_caches_scenario_3_links_network.node[1].core_layer 	data[1] 	61145
scalar three_caches_scenario_3_links_network.node[1].content_store 	p_hit[1] 	0
scalar three_caches_scenario_3_links_network.node[1].content_store 	hits[1] 	0
scalar three_caches_scenario_3_links_network.node[1].content_store 	misses[1] 	61145
scalar three_caches_scenario_3_links_network.node[1].content_store 	decision_yes[1] 	0
scalar three_caches_scenario_3_links_network.node[1].content_store 	decision_no[1] 	61145
scalar three_caches_scenario_3_links_network.node[2].core_layer 	interests[2] 	13345
scalar three_caches_scenario_3_links_network.node[2].core_layer 	data[2] 	11430
scalar three_caches_scenario_3_links_network.node[2].content_store 	p_hit[2] 	0.14349943799176
scalar three_caches_scenario_3_links_network.node[2].content_store 	hits[2] 	1915
scalar three_caches_scenario_3_links_network.node[2].content_store 	misses[2] 	11430
scalar three_caches_scenario_3_links_network.node[2].content_store 	decision_yes[2] 	9
scalar three_caches_scenario_3_links_network.node[2].content_store 	decision_no[2] 	11421
scalar three_caches_scenario_3_links_network.node[3].core_layer 	interests[3] 	12576
scalar three_caches_scenario_3_links_network.node[3].core_layer 	data[3] 	11224
scalar three_caches_scenario_3_links_network.node[3].content_store 	p_hit[3] 	0.10750636132316
scalar three_caches_scenario_3_links_network.node[3].content_store 	hits[3] 	1352
scalar three_caches_scenario_3_links_network.node[3].content_store 	misses[3] 	11224
scalar three_caches_scenario_3_links_network.node[3].content_store 	decision_yes[3] 	13
scalar three_caches_scenario_3_links_network.node[3].content_store 	decision_no[3] 	11211
scalar three_caches_scenario_3_links_network.node[4].core_layer 	interests[4] 	61145
scalar three_caches_scenario_3_links_network.node[4].core_layer 	repo_load[4] 	61145
scalar three_caches_scenario_3_links_network.node[4].core_layer 	data[4] 	0
scalar three_caches_scenario_3_links_network.node[4].content_store 	p_hit[4] 	0
scalar three_caches_scenario_3_links_network.node[4].content_store 	hits[4] 	0
scalar three_caches_scenario_3_links_network.node[4].content_store 	misses[4] 	61145
scalar three_caches_scenario_3_links_network.node[4].content_store 	decision_yes[4] 	0
scalar three_caches_scenario_3_links_network.node[4].content_store 	decision_no[4] 	61145
scalar three_caches_scenario_3_links_network.node[5].core_layer 	interests[5] 	11430
scalar three_caches_scenario_3_links_network.node[5].core_layer 	repo_load[5] 	11430
scalar three_caches_scenario_3_links_network.node[5].core_layer 	data[5] 	0
scalar three_caches_scenario_3_links_network.node[5].content_store 	p_hit[5] 	0
scalar three_caches_scenario_3_links_network.node[5].content_store 	hits[5] 	0
scalar three_caches_scenario_3_links_network.node[5].content_store 	misses[5] 	11430
scalar three_caches_scenario_3_links_network.node[5].content_store 	decision_yes[5] 	0
scalar three_caches_scenario_3_links_network.node[5].content_store 	decision_no[5] 	11430
scalar three_caches_scenario_3_links_network.node[6].core_layer 	interests[6] 	11224
scalar three_caches_scenario_3_links_network.node[6].core_layer 	repo_load[6] 	11224
scalar three_caches_scenario_3_links_network.node[6].core_layer 	data[6] 	0
scalar three_caches_scenario_3_links_network.node[6].content_store 	p_hit[6] 	0
scalar three_caches_scenario_3_links_network.node[6].content_store 	hits[6] 	0
scalar three_caches_scenario_3_links_network.node[6].content_store 	misses[6] 	11224
scalar three_caches_scenario_3_links_network.node[6].content_store 	decision_yes[6] 	0
scalar three_caches_scenario_3_links_network.node[6].content_store 	decision_no[6] 	11224
scalar three_caches_scenario_3_links_network.client[0] 	hdistance[0] 	1.0770022762309
scalar three_caches_scenario_3_links_network.client[0] 	downloads[0] 	179683
scalar three_caches_scenario_3_links_network.client[0] 	avg_time[0] 	0
scalar three_caches_scenario_3_links_network.client[0] 	interests_sent[0] 	179683
