version 2
run General-2685-20140502-06:13:57-11643
attr D fix0.001
attr F nrr
attr R lru
attr a 1
attr configname General
attr csize 1e3
attr ctlg 1e5
attr datetime 20140502-06:13:57
attr experiment General
attr inifile omnetpp.ini
attr iterationvars "$net=three_caches_scenario_3_links, $rep=5, $priceratiovalue=5, $weights=0.7_0.15_0.15, $a=1, $ctlg=1e5, $F=nrr, $ttl=1000, $D=fix0.001, $xi=1, $R=lru, $csize=1e3"
attr iterationvars2 "$net=three_caches_scenario_3_links, $rep=5, $priceratiovalue=5, $weights=0.7_0.15_0.15, $a=1, $ctlg=1e5, $F=nrr, $ttl=1000, $D=fix0.001, $xi=1, $R=lru, $csize=1e3, $repetition=0"
attr measurement "$net=three_caches_scenario_3_links, $rep=5, $priceratiovalue=5, $weights=0.7_0.15_0.15, $a=1, $ctlg=1e5, $F=nrr, $ttl=1000, $D=fix0.001, $xi=1, $R=lru, $csize=1e3"
attr net three_caches_scenario_3_links
attr network networks.${net=three_caches_scenario_3_links}_network
attr priceratiovalue 5
attr processid 11643
attr rep 5
attr repetition 0
attr replication #0
attr resultdir results
attr runnumber 2685
attr seedset 5
attr ttl 1000
attr weights 0.7_0.15_0.15
attr xi 1

scalar . 	a 	1
scalar . 	csize 	1e3
scalar . 	ctlg 	1e5
scalar . 	priceratiovalue 	5
scalar . 	rep 	5
scalar . 	ttl 	1000
scalar . 	xi 	1
scalar three_caches_scenario_3_links_network.content_distribution 	repo-0 	4
scalar three_caches_scenario_3_links_network.content_distribution 	repo-1 	5
scalar three_caches_scenario_3_links_network.content_distribution 	repo-2 	6
scalar three_caches_scenario_3_links_network.content_distribution 	client-0 	0
scalar three_caches_scenario_3_links_network.content_distribution 	repo-0_card 	70036
scalar three_caches_scenario_3_links_network.content_distribution 	repo-1_card 	14984
scalar three_caches_scenario_3_links_network.content_distribution 	repo-2_card 	14980
scalar three_caches_scenario_3_links_network.statistics 	p_hit 	0.27485008515449
scalar three_caches_scenario_3_links_network.statistics 	interests 	49909.285714286
scalar three_caches_scenario_3_links_network.statistics 	data 	24300.857142857
scalar three_caches_scenario_3_links_network.statistics 	hdistance 	1.0727717994633
scalar three_caches_scenario_3_links_network.statistics 	avg_time 	0
scalar three_caches_scenario_3_links_network.statistics 	downloads 	179259
scalar three_caches_scenario_3_links_network.statistics 	total_cost 	66766
scalar three_caches_scenario_3_links_network.statistics 	total_replicas 	100000
scalar three_caches_scenario_3_links_network.statistics 	interests_sent 	179259
scalar three_caches_scenario_3_links_network.node[0].core_layer 	interests[0] 	179259
scalar three_caches_scenario_3_links_network.node[0].core_layer 	data[0] 	86870
scalar three_caches_scenario_3_links_network.node[0].core_layer 	repo_int[0] 	83236
scalar three_caches_scenario_3_links_network.node[0].content_store 	p_hit[0] 	0.51539392722262
scalar three_caches_scenario_3_links_network.node[0].content_store 	hits[0] 	92389
scalar three_caches_scenario_3_links_network.node[0].content_store 	misses[0] 	86870
scalar three_caches_scenario_3_links_network.node[0].content_store 	decision_yes[0] 	93
scalar three_caches_scenario_3_links_network.node[0].content_store 	decision_no[0] 	86777
scalar three_caches_scenario_3_links_network.node[1].core_layer 	interests[1] 	61038
scalar three_caches_scenario_3_links_network.node[1].core_layer 	data[1] 	61038
scalar three_caches_scenario_3_links_network.node[1].content_store 	p_hit[1] 	0
scalar three_caches_scenario_3_links_network.node[1].content_store 	hits[1] 	0
scalar three_caches_scenario_3_links_network.node[1].content_store 	misses[1] 	61038
scalar three_caches_scenario_3_links_network.node[1].content_store 	decision_yes[1] 	0
scalar three_caches_scenario_3_links_network.node[1].content_store 	decision_no[1] 	61038
scalar three_caches_scenario_3_links_network.node[2].core_layer 	interests[2] 	12710
scalar three_caches_scenario_3_links_network.node[2].core_layer 	data[2] 	11056
scalar three_caches_scenario_3_links_network.node[2].content_store 	p_hit[2] 	0.13013375295043
scalar three_caches_scenario_3_links_network.node[2].content_store 	hits[2] 	1654
scalar three_caches_scenario_3_links_network.node[2].content_store 	misses[2] 	11056
scalar three_caches_scenario_3_links_network.node[2].content_store 	decision_yes[2] 	9
scalar three_caches_scenario_3_links_network.node[2].content_store 	decision_no[2] 	11047
scalar three_caches_scenario_3_links_network.node[3].core_layer 	interests[3] 	13122
scalar three_caches_scenario_3_links_network.node[3].core_layer 	data[3] 	11142
scalar three_caches_scenario_3_links_network.node[3].content_store 	p_hit[3] 	0.15089163237311
scalar three_caches_scenario_3_links_network.node[3].content_store 	hits[3] 	1980
scalar three_caches_scenario_3_links_network.node[3].content_store 	misses[3] 	11142
scalar three_caches_scenario_3_links_network.node[3].content_store 	decision_yes[3] 	10
scalar three_caches_scenario_3_links_network.node[3].content_store 	decision_no[3] 	11132
scalar three_caches_scenario_3_links_network.node[4].core_layer 	interests[4] 	61038
scalar three_caches_scenario_3_links_network.node[4].core_layer 	repo_load[4] 	61038
scalar three_caches_scenario_3_links_network.node[4].core_layer 	data[4] 	0
scalar three_caches_scenario_3_links_network.node[4].content_store 	p_hit[4] 	0
scalar three_caches_scenario_3_links_network.node[4].content_store 	hits[4] 	0
scalar three_caches_scenario_3_links_network.node[4].content_store 	misses[4] 	61038
scalar three_caches_scenario_3_links_network.node[4].content_store 	decision_yes[4] 	0
scalar three_caches_scenario_3_links_network.node[4].content_store 	decision_no[4] 	61038
scalar three_caches_scenario_3_links_network.node[5].core_layer 	interests[5] 	11056
scalar three_caches_scenario_3_links_network.node[5].core_layer 	repo_load[5] 	11056
scalar three_caches_scenario_3_links_network.node[5].core_layer 	data[5] 	0
scalar three_caches_scenario_3_links_network.node[5].content_store 	p_hit[5] 	0
scalar three_caches_scenario_3_links_network.node[5].content_store 	hits[5] 	0
scalar three_caches_scenario_3_links_network.node[5].content_store 	misses[5] 	11056
scalar three_caches_scenario_3_links_network.node[5].content_store 	decision_yes[5] 	0
scalar three_caches_scenario_3_links_network.node[5].content_store 	decision_no[5] 	11056
scalar three_caches_scenario_3_links_network.node[6].core_layer 	interests[6] 	11142
scalar three_caches_scenario_3_links_network.node[6].core_layer 	repo_load[6] 	11142
scalar three_caches_scenario_3_links_network.node[6].core_layer 	data[6] 	0
scalar three_caches_scenario_3_links_network.node[6].content_store 	p_hit[6] 	0
scalar three_caches_scenario_3_links_network.node[6].content_store 	hits[6] 	0
scalar three_caches_scenario_3_links_network.node[6].content_store 	misses[6] 	11142
scalar three_caches_scenario_3_links_network.node[6].content_store 	decision_yes[6] 	0
scalar three_caches_scenario_3_links_network.node[6].content_store 	decision_no[6] 	11142
scalar three_caches_scenario_3_links_network.client[0] 	hdistance[0] 	1.0727717994633
scalar three_caches_scenario_3_links_network.client[0] 	downloads[0] 	179259
scalar three_caches_scenario_3_links_network.client[0] 	avg_time[0] 	0
scalar three_caches_scenario_3_links_network.client[0] 	interests_sent[0] 	179259
