version 2
run General-578-20140422-19:50:54-27313
attr D prob_cache
attr F nrr
attr R lru
attr a 0
attr configname General
attr csize 10
attr ctlg 10^3
attr datetime 20140422-19:50:54
attr experiment General
attr inifile omnetpp.ini
attr iterationvars "$net=simple_scenario, $rep=5, $priceratiovalue=9, $a=0, $ctlg=10^3, $F=nrr, $ttl=1000, $D=prob_cache, $R=lru, $csize=10"
attr iterationvars2 "$net=simple_scenario, $rep=5, $priceratiovalue=9, $a=0, $ctlg=10^3, $F=nrr, $ttl=1000, $D=prob_cache, $R=lru, $csize=10, $repetition=0"
attr measurement "$net=simple_scenario, $rep=5, $priceratiovalue=9, $a=0, $ctlg=10^3, $F=nrr, $ttl=1000, $D=prob_cache, $R=lru, $csize=10"
attr net simple_scenario
attr network networks.${net=simple_scenario}_network
attr priceratiovalue 9
attr processid 27313
attr rep 5
attr repetition 0
attr replication #0
attr resultdir results
attr runnumber 578
attr seedset 5
attr ttl 1000

scalar . 	a 	0
scalar . 	csize 	10
scalar . 	priceratiovalue 	9
scalar . 	rep 	5
scalar . 	ttl 	1000
scalar simple_scenario_network.content_distribution 	repo-0 	3
scalar simple_scenario_network.content_distribution 	repo-1 	4
scalar simple_scenario_network.content_distribution 	client-0 	0
scalar simple_scenario_network.content_distribution 	repo-0_card 	495
scalar simple_scenario_network.content_distribution 	repo-1_card 	505
scalar simple_scenario_network.statistics 	p_hit 	0.0095082471019897
scalar simple_scenario_network.statistics 	interests 	106728.4
scalar simple_scenario_network.statistics 	data 	70693.8
scalar simple_scenario_network.statistics 	hdistance 	2.9336693067219
scalar simple_scenario_network.statistics 	avg_time 	0.001999691098
scalar simple_scenario_network.statistics 	downloads 	180173
scalar simple_scenario_network.statistics 	total_cost 	88638
scalar simple_scenario_network.node[0].core_layer 	interests[0] 	180173
scalar simple_scenario_network.node[0].core_layer 	data[0] 	178370
scalar simple_scenario_network.node[0].core_layer 	repo_int[0] 	175099
scalar simple_scenario_network.node[0].content_store 	p_hit[0] 	0.010007048780894
scalar simple_scenario_network.node[0].content_store 	hits[0] 	1803
scalar simple_scenario_network.node[0].content_store 	misses[0] 	178370
scalar simple_scenario_network.node[1].core_layer 	interests[1] 	87884
scalar simple_scenario_network.node[1].core_layer 	data[1] 	86187
scalar simple_scenario_network.node[1].content_store 	p_hit[1] 	0.019309544399436
scalar simple_scenario_network.node[1].content_store 	hits[1] 	1697
scalar simple_scenario_network.node[1].content_store 	misses[1] 	86187
scalar simple_scenario_network.node[2].core_layer 	interests[2] 	90486
scalar simple_scenario_network.node[2].core_layer 	data[2] 	88912
scalar simple_scenario_network.node[2].content_store 	p_hit[2] 	0.01739495612581
scalar simple_scenario_network.node[2].content_store 	hits[2] 	1574
scalar simple_scenario_network.node[2].content_store 	misses[2] 	88912
scalar simple_scenario_network.node[3].core_layer 	interests[3] 	86187
scalar simple_scenario_network.node[3].core_layer 	repo_load[3] 	86187
scalar simple_scenario_network.node[3].core_layer 	data[3] 	0
scalar simple_scenario_network.node[3].content_store 	p_hit[3] 	0
scalar simple_scenario_network.node[3].content_store 	hits[3] 	0
scalar simple_scenario_network.node[3].content_store 	misses[3] 	86187
scalar simple_scenario_network.node[4].core_layer 	interests[4] 	88912
scalar simple_scenario_network.node[4].core_layer 	repo_load[4] 	88912
scalar simple_scenario_network.node[4].core_layer 	data[4] 	0
scalar simple_scenario_network.node[4].content_store 	p_hit[4] 	0
scalar simple_scenario_network.node[4].content_store 	hits[4] 	0
scalar simple_scenario_network.node[4].content_store 	misses[4] 	88912
scalar simple_scenario_network.client[0] 	hdistance[0] 	2.9336693067219
scalar simple_scenario_network.client[0] 	downloads[0] 	180173
scalar simple_scenario_network.client[0] 	avg_time[0] 	0.001999691098
