version 2
run General-1711-20140425-02:05:35-13051
attr D fix0.01
attr F nrr
attr R lru
attr a 1.2
attr configname General
attr csize 9
attr ctlg 10^3
attr datetime 20140425-02:05:35
attr experiment General
attr inifile omnetpp.ini
attr iterationvars "$net=one_cache_scenario, $rep=5, $priceratiovalue=1, $a=1.2, $ctlg=10^3, $F=nrr, $ttl=1000, $D=fix0.01, $R=lru, $csize=9"
attr iterationvars2 "$net=one_cache_scenario, $rep=5, $priceratiovalue=1, $a=1.2, $ctlg=10^3, $F=nrr, $ttl=1000, $D=fix0.01, $R=lru, $csize=9, $repetition=0"
attr measurement "$net=one_cache_scenario, $rep=5, $priceratiovalue=1, $a=1.2, $ctlg=10^3, $F=nrr, $ttl=1000, $D=fix0.01, $R=lru, $csize=9"
attr net one_cache_scenario
attr network networks.${net=one_cache_scenario}_network
attr priceratiovalue 1
attr processid 13051
attr rep 5
attr repetition 0
attr replication #0
attr resultdir results
attr runnumber 1711
attr seedset 5
attr ttl 1000

scalar . 	a 	1.2
scalar . 	csize 	9
scalar . 	priceratiovalue 	1
scalar . 	rep 	5
scalar . 	ttl 	1000
scalar one_cache_scenario_network.content_distribution 	repo-0 	3
scalar one_cache_scenario_network.content_distribution 	repo-1 	4
scalar one_cache_scenario_network.content_distribution 	client-0 	0
scalar one_cache_scenario_network.content_distribution 	repo-0_card 	519
scalar one_cache_scenario_network.content_distribution 	repo-1_card 	481
scalar one_cache_scenario_network.statistics 	p_hit 	0.25739047645716
scalar one_cache_scenario_network.statistics 	interests 	71423
scalar one_cache_scenario_network.statistics 	data 	35359.6
scalar one_cache_scenario_network.statistics 	hdistance 	0.98048436919425
scalar one_cache_scenario_network.statistics 	avg_time 	0
scalar one_cache_scenario_network.statistics 	downloads 	180317
scalar one_cache_scenario_network.statistics 	total_cost 	44199
scalar one_cache_scenario_network.statistics 	interests_sent 	180317
scalar one_cache_scenario_network.node[0].core_layer 	interests[0] 	180317
scalar one_cache_scenario_network.node[0].core_layer 	data[0] 	88399
scalar one_cache_scenario_network.node[0].core_layer 	repo_int[0] 	88399
scalar one_cache_scenario_network.node[0].content_store 	p_hit[0] 	0.50975781540287
scalar one_cache_scenario_network.node[0].content_store 	hits[0] 	91918
scalar one_cache_scenario_network.node[0].content_store 	misses[0] 	88399
scalar one_cache_scenario_network.node[0].content_store 	decision_yes[0] 	884
scalar one_cache_scenario_network.node[0].content_store 	decision_no[0] 	87515
scalar one_cache_scenario_network.node[1].core_layer 	interests[1] 	46343
scalar one_cache_scenario_network.node[1].core_layer 	data[1] 	46343
scalar one_cache_scenario_network.node[1].content_store 	p_hit[1] 	0
scalar one_cache_scenario_network.node[1].content_store 	hits[1] 	0
scalar one_cache_scenario_network.node[1].content_store 	misses[1] 	46343
scalar one_cache_scenario_network.node[1].content_store 	decision_yes[1] 	0
scalar one_cache_scenario_network.node[1].content_store 	decision_no[1] 	46343
scalar one_cache_scenario_network.node[2].core_layer 	interests[2] 	42056
scalar one_cache_scenario_network.node[2].core_layer 	data[2] 	42056
scalar one_cache_scenario_network.node[2].content_store 	p_hit[2] 	0
scalar one_cache_scenario_network.node[2].content_store 	hits[2] 	0
scalar one_cache_scenario_network.node[2].content_store 	misses[2] 	42056
scalar one_cache_scenario_network.node[2].content_store 	decision_yes[2] 	0
scalar one_cache_scenario_network.node[2].content_store 	decision_no[2] 	42056
scalar one_cache_scenario_network.node[3].core_layer 	interests[3] 	46343
scalar one_cache_scenario_network.node[3].core_layer 	repo_load[3] 	46343
scalar one_cache_scenario_network.node[3].core_layer 	data[3] 	0
scalar one_cache_scenario_network.node[3].content_store 	p_hit[3] 	0
scalar one_cache_scenario_network.node[3].content_store 	hits[3] 	0
scalar one_cache_scenario_network.node[3].content_store 	misses[3] 	46343
scalar one_cache_scenario_network.node[3].content_store 	decision_yes[3] 	0
scalar one_cache_scenario_network.node[3].content_store 	decision_no[3] 	46343
scalar one_cache_scenario_network.node[4].core_layer 	interests[4] 	42056
scalar one_cache_scenario_network.node[4].core_layer 	repo_load[4] 	42056
scalar one_cache_scenario_network.node[4].core_layer 	data[4] 	0
scalar one_cache_scenario_network.node[4].content_store 	p_hit[4] 	0
scalar one_cache_scenario_network.node[4].content_store 	hits[4] 	0
scalar one_cache_scenario_network.node[4].content_store 	misses[4] 	42056
scalar one_cache_scenario_network.node[4].content_store 	decision_yes[4] 	0
scalar one_cache_scenario_network.node[4].content_store 	decision_no[4] 	42056
scalar one_cache_scenario_network.client[0] 	hdistance[0] 	0.98048436919425
scalar one_cache_scenario_network.client[0] 	downloads[0] 	180317
scalar one_cache_scenario_network.client[0] 	avg_time[0] 	0
scalar one_cache_scenario_network.client[0] 	interests_sent[0] 	180317
