version 2
run General-318-20140501-22:12:44-7947
attr D costprob0.005
attr F nrr
attr R lru
attr a 0.8
attr configname General
attr csize 1e3
attr ctlg 1e5
attr datetime 20140501-22:12:44
attr experiment General
attr inifile omnetpp.ini
attr iterationvars "$net=one_cache_scenario_3_links, $rep=1, $priceratiovalue=10, $weights=0.2_0.4_0.4, $a=0.8, $ctlg=1e5, $F=nrr, $ttl=1000, $D=costprob0.005, $xi=1, $R=lru, $csize=1e3"
attr iterationvars2 "$net=one_cache_scenario_3_links, $rep=1, $priceratiovalue=10, $weights=0.2_0.4_0.4, $a=0.8, $ctlg=1e5, $F=nrr, $ttl=1000, $D=costprob0.005, $xi=1, $R=lru, $csize=1e3, $repetition=0"
attr measurement "$net=one_cache_scenario_3_links, $rep=1, $priceratiovalue=10, $weights=0.2_0.4_0.4, $a=0.8, $ctlg=1e5, $F=nrr, $ttl=1000, $D=costprob0.005, $xi=1, $R=lru, $csize=1e3"
attr net one_cache_scenario_3_links
attr network networks.${net=one_cache_scenario_3_links}_network
attr priceratiovalue 10
attr processid 7947
attr rep 1
attr repetition 0
attr replication #0
attr resultdir results
attr runnumber 318
attr seedset 1
attr ttl 1000
attr weights 0.2_0.4_0.4
attr xi 1

scalar . 	a 	0.8
scalar . 	csize 	1e3
scalar . 	ctlg 	1e5
scalar . 	priceratiovalue 	10
scalar . 	rep 	1
scalar . 	ttl 	1000
scalar . 	xi 	1
scalar one_cache_scenario_3_links_network.content_distribution 	repo-0 	4
scalar one_cache_scenario_3_links_network.content_distribution 	repo-1 	5
scalar one_cache_scenario_3_links_network.content_distribution 	repo-2 	6
scalar one_cache_scenario_3_links_network.content_distribution 	client-0 	0
scalar one_cache_scenario_3_links_network.content_distribution 	repo-0_card 	19939
scalar one_cache_scenario_3_links_network.content_distribution 	repo-1_card 	40008
scalar one_cache_scenario_3_links_network.content_distribution 	repo-2_card 	40053
scalar one_cache_scenario_3_links_network.statistics 	p_hit 	0.059503775530743
scalar one_cache_scenario_3_links_network.statistics 	interests 	68845.571428571
scalar one_cache_scenario_3_links_network.statistics 	data 	43166
scalar one_cache_scenario_3_links_network.statistics 	hdistance 	1.6809470563038
scalar one_cache_scenario_3_links_network.statistics 	avg_time 	0
scalar one_cache_scenario_3_links_network.statistics 	downloads 	179757
scalar one_cache_scenario_3_links_network.statistics 	total_cost 	567372
scalar one_cache_scenario_3_links_network.statistics 	total_replicas 	100000
scalar one_cache_scenario_3_links_network.statistics 	interests_sent 	179757
scalar one_cache_scenario_3_links_network.node[0].core_layer 	interests[0] 	179757
scalar one_cache_scenario_3_links_network.node[0].core_layer 	data[0] 	151081
scalar one_cache_scenario_3_links_network.node[0].core_layer 	repo_int[0] 	151081
scalar one_cache_scenario_3_links_network.node[0].content_store 	p_hit[0] 	0.15952647184811
scalar one_cache_scenario_3_links_network.node[0].content_store 	hits[0] 	28676
scalar one_cache_scenario_3_links_network.node[0].content_store 	misses[0] 	151081
scalar one_cache_scenario_3_links_network.node[0].content_store 	decision_yes[0] 	632
scalar one_cache_scenario_3_links_network.node[0].content_store 	decision_no[0] 	150449
scalar one_cache_scenario_3_links_network.node[1].core_layer 	interests[1] 	36652
scalar one_cache_scenario_3_links_network.node[1].core_layer 	data[1] 	36652
scalar one_cache_scenario_3_links_network.node[1].content_store 	p_hit[1] 	0
scalar one_cache_scenario_3_links_network.node[1].content_store 	hits[1] 	0
scalar one_cache_scenario_3_links_network.node[1].content_store 	misses[1] 	36652
scalar one_cache_scenario_3_links_network.node[1].content_store 	decision_yes[1] 	0
scalar one_cache_scenario_3_links_network.node[1].content_store 	decision_no[1] 	36652
scalar one_cache_scenario_3_links_network.node[2].core_layer 	interests[2] 	64102
scalar one_cache_scenario_3_links_network.node[2].core_layer 	data[2] 	64102
scalar one_cache_scenario_3_links_network.node[2].content_store 	p_hit[2] 	0
scalar one_cache_scenario_3_links_network.node[2].content_store 	hits[2] 	0
scalar one_cache_scenario_3_links_network.node[2].content_store 	misses[2] 	64102
scalar one_cache_scenario_3_links_network.node[2].content_store 	decision_yes[2] 	0
scalar one_cache_scenario_3_links_network.node[2].content_store 	decision_no[2] 	64102
scalar one_cache_scenario_3_links_network.node[3].core_layer 	interests[3] 	50327
scalar one_cache_scenario_3_links_network.node[3].core_layer 	data[3] 	50327
scalar one_cache_scenario_3_links_network.node[3].content_store 	p_hit[3] 	0
scalar one_cache_scenario_3_links_network.node[3].content_store 	hits[3] 	0
scalar one_cache_scenario_3_links_network.node[3].content_store 	misses[3] 	50327
scalar one_cache_scenario_3_links_network.node[3].content_store 	decision_yes[3] 	0
scalar one_cache_scenario_3_links_network.node[3].content_store 	decision_no[3] 	50327
scalar one_cache_scenario_3_links_network.node[4].core_layer 	interests[4] 	36652
scalar one_cache_scenario_3_links_network.node[4].core_layer 	repo_load[4] 	36652
scalar one_cache_scenario_3_links_network.node[4].core_layer 	data[4] 	0
scalar one_cache_scenario_3_links_network.node[4].content_store 	p_hit[4] 	0
scalar one_cache_scenario_3_links_network.node[4].content_store 	hits[4] 	0
scalar one_cache_scenario_3_links_network.node[4].content_store 	misses[4] 	36652
scalar one_cache_scenario_3_links_network.node[4].content_store 	decision_yes[4] 	0
scalar one_cache_scenario_3_links_network.node[4].content_store 	decision_no[4] 	36652
scalar one_cache_scenario_3_links_network.node[5].core_layer 	interests[5] 	64102
scalar one_cache_scenario_3_links_network.node[5].core_layer 	repo_load[5] 	64102
scalar one_cache_scenario_3_links_network.node[5].core_layer 	data[5] 	0
scalar one_cache_scenario_3_links_network.node[5].content_store 	p_hit[5] 	0
scalar one_cache_scenario_3_links_network.node[5].content_store 	hits[5] 	0
scalar one_cache_scenario_3_links_network.node[5].content_store 	misses[5] 	64102
scalar one_cache_scenario_3_links_network.node[5].content_store 	decision_yes[5] 	0
scalar one_cache_scenario_3_links_network.node[5].content_store 	decision_no[5] 	64102
scalar one_cache_scenario_3_links_network.node[6].core_layer 	interests[6] 	50327
scalar one_cache_scenario_3_links_network.node[6].core_layer 	repo_load[6] 	50327
scalar one_cache_scenario_3_links_network.node[6].core_layer 	data[6] 	0
scalar one_cache_scenario_3_links_network.node[6].content_store 	p_hit[6] 	0
scalar one_cache_scenario_3_links_network.node[6].content_store 	hits[6] 	0
scalar one_cache_scenario_3_links_network.node[6].content_store 	misses[6] 	50327
scalar one_cache_scenario_3_links_network.node[6].content_store 	decision_yes[6] 	0
scalar one_cache_scenario_3_links_network.node[6].content_store 	decision_no[6] 	50327
scalar one_cache_scenario_3_links_network.client[0] 	hdistance[0] 	1.6809470563038
scalar one_cache_scenario_3_links_network.client[0] 	downloads[0] 	179757
scalar one_cache_scenario_3_links_network.client[0] 	avg_time[0] 	0
scalar one_cache_scenario_3_links_network.client[0] 	interests_sent[0] 	179757
