version 2
run General-32-20140424-15:51:11-16222
attr D fix1
attr F nrr
attr R lru
attr a 0.8
attr configname General
attr csize 10
attr ctlg 10^3
attr datetime 20140424-15:51:11
attr experiment General
attr inifile omnetpp.ini
attr iterationvars "$net=simple_scenario, $rep=1, $priceratiovalue=6, $a=0.8, $ctlg=10^3, $F=nrr, $ttl=1000, $D=fix1, $R=lru, $csize=10"
attr iterationvars2 "$net=simple_scenario, $rep=1, $priceratiovalue=6, $a=0.8, $ctlg=10^3, $F=nrr, $ttl=1000, $D=fix1, $R=lru, $csize=10, $repetition=0"
attr measurement "$net=simple_scenario, $rep=1, $priceratiovalue=6, $a=0.8, $ctlg=10^3, $F=nrr, $ttl=1000, $D=fix1, $R=lru, $csize=10"
attr net simple_scenario
attr network networks.${net=simple_scenario}_network
attr priceratiovalue 6
attr processid 16222
attr rep 1
attr repetition 0
attr replication #0
attr resultdir results
attr runnumber 32
attr seedset 1
attr ttl 1000

scalar . 	a 	0.8
scalar . 	csize 	10
scalar . 	priceratiovalue 	6
scalar . 	rep 	1
scalar . 	ttl 	1000
scalar simple_scenario_network.content_distribution 	repo-0 	3
scalar simple_scenario_network.content_distribution 	repo-1 	4
scalar simple_scenario_network.content_distribution 	client-0 	0
scalar simple_scenario_network.content_distribution 	repo-0_card 	522
scalar simple_scenario_network.content_distribution 	repo-1_card 	478
scalar simple_scenario_network.statistics 	p_hit 	0.048905521197526
scalar simple_scenario_network.statistics 	interests 	99992.8
scalar simple_scenario_network.statistics 	data 	64045.2
scalar simple_scenario_network.statistics 	hdistance 	2.6455896916623
scalar simple_scenario_network.statistics 	avg_time 	0.001998119499
scalar simple_scenario_network.statistics 	downloads 	179738
scalar simple_scenario_network.statistics 	total_cost 	79874
scalar simple_scenario_network.node[0].core_layer 	interests[0] 	179738
scalar simple_scenario_network.node[0].core_layer 	data[0] 	164939
scalar simple_scenario_network.node[0].core_layer 	repo_int[0] 	155287
scalar simple_scenario_network.node[0].content_store 	p_hit[0] 	0.082336512034183
scalar simple_scenario_network.node[0].content_store 	hits[0] 	14799
scalar simple_scenario_network.node[0].content_store 	misses[0] 	164939
scalar simple_scenario_network.node[1].core_layer 	interests[1] 	78116
scalar simple_scenario_network.node[1].core_layer 	data[1] 	74519
scalar simple_scenario_network.node[1].content_store 	p_hit[1] 	0.04604690460341
scalar simple_scenario_network.node[1].content_store 	hits[1] 	3597
scalar simple_scenario_network.node[1].content_store 	misses[1] 	74519
scalar simple_scenario_network.node[2].core_layer 	interests[2] 	86823
scalar simple_scenario_network.node[2].core_layer 	data[2] 	80768
scalar simple_scenario_network.node[2].content_store 	p_hit[2] 	0.069739585132972
scalar simple_scenario_network.node[2].content_store 	hits[2] 	6055
scalar simple_scenario_network.node[2].content_store 	misses[2] 	80768
scalar simple_scenario_network.node[3].core_layer 	interests[3] 	74519
scalar simple_scenario_network.node[3].core_layer 	repo_load[3] 	74519
scalar simple_scenario_network.node[3].core_layer 	data[3] 	0
scalar simple_scenario_network.node[3].content_store 	p_hit[3] 	0
scalar simple_scenario_network.node[3].content_store 	hits[3] 	0
scalar simple_scenario_network.node[3].content_store 	misses[3] 	74519
scalar simple_scenario_network.node[4].core_layer 	interests[4] 	80768
scalar simple_scenario_network.node[4].core_layer 	repo_load[4] 	80768
scalar simple_scenario_network.node[4].core_layer 	data[4] 	0
scalar simple_scenario_network.node[4].content_store 	p_hit[4] 	0
scalar simple_scenario_network.node[4].content_store 	hits[4] 	0
scalar simple_scenario_network.node[4].content_store 	misses[4] 	80768
scalar simple_scenario_network.client[0] 	hdistance[0] 	2.6455896916623
scalar simple_scenario_network.client[0] 	downloads[0] 	179738
scalar simple_scenario_network.client[0] 	avg_time[0] 	0.001998119499
