version 2
run General-0-20141008-15:49:57-3875
attr D costaware0.01
attr F nrr
attr R lru
attr a 1
attr configname General
attr csize 1e3
attr ctlg 1e5
attr datetime 20141008-15:49:57
attr experiment General
attr inifile omnetpp.ini
attr iterationvars "$net=cost_scenario, $rep=1, $priceratiovalue=10, $weights=0.5_0.25_0.25, $lambda=100, $a=1, $ctlg=1e5, $F=nrr, $ttl=10, $D=costaware0.01, $xi=0.25, $R=lru, $csize=1e3, $pricebits=0, $window=60, $variance=0.05, $mytime=1800"
attr iterationvars2 "$net=cost_scenario, $rep=1, $priceratiovalue=10, $weights=0.5_0.25_0.25, $lambda=100, $a=1, $ctlg=1e5, $F=nrr, $ttl=10, $D=costaware0.01, $xi=0.25, $R=lru, $csize=1e3, $pricebits=0, $window=60, $variance=0.05, $mytime=1800, $repetition=0"
attr lambda 100
attr measurement "$net=cost_scenario, $rep=1, $priceratiovalue=10, $weights=0.5_0.25_0.25, $lambda=100, $a=1, $ctlg=1e5, $F=nrr, $ttl=10, $D=costaware0.01, $xi=0.25, $R=lru, $csize=1e3, $pricebits=0, $window=60, $variance=0.05, $mytime=1800"
attr mytime 1800
attr net cost_scenario
attr network networks.${net=cost_scenario}_network
attr pricebits 0
attr priceratiovalue 10
attr processid 3875
attr rep 1
attr repetition 0
attr replication #0
attr resultdir results
attr runnumber 0
attr seedset 1
attr ttl 10
attr variance 0.05
attr weights 0.5_0.25_0.25
attr window 60
attr xi 0.25

scalar . 	a 	1
scalar . 	csize 	1e3
scalar . 	ctlg 	1e5
scalar . 	lambda 	100
scalar . 	mytime 	1800
scalar . 	pricebits 	0
scalar . 	priceratiovalue 	10
scalar . 	rep 	1
scalar . 	ttl 	10
scalar . 	variance 	0.05
scalar . 	window 	60
scalar . 	xi 	0.25
scalar cost_scenario_network.content_distribution 	repo-0 	1
scalar cost_scenario_network.content_distribution 	repo-1 	2
scalar cost_scenario_network.content_distribution 	repo-2 	3
scalar cost_scenario_network.content_distribution 	client-0 	0
scalar cost_scenario_network.content_distribution 	repo-0_card 	49964
scalar cost_scenario_network.content_distribution 	repo-0_price 	1
scalar cost_scenario_network.content_distribution 	repo-1_card 	24903
scalar cost_scenario_network.content_distribution 	repo-1_price 	0
scalar cost_scenario_network.content_distribution 	repo-2_card 	25133
scalar cost_scenario_network.content_distribution 	repo-2_price 	10
scalar cost_scenario_network.statistics 	repo_popularity[0] 	0.41696023996424
scalar cost_scenario_network.statistics 	repo_popularity[1] 	0.26751285672864
scalar cost_scenario_network.statistics 	repo_popularity[2] 	0.31552690330714
scalar cost_scenario_network.statistics 	stabilization_time 	61.3
scalar cost_scenario_network.statistics 	p_hit 	0.1695055414236
scalar cost_scenario_network.statistics 	interests 	55626.5
scalar cost_scenario_network.statistics 	data 	23098.5
scalar cost_scenario_network.statistics 	hdistance 	1.4202444085774
scalar cost_scenario_network.statistics 	avg_time 	0
scalar cost_scenario_network.statistics 	downloads 	130110
scalar cost_scenario_network.statistics 	total_cost 	281517
scalar cost_scenario_network.statistics 	total_replicas 	100000
scalar cost_scenario_network.statistics 	inner_hit 	0.289870109907
scalar cost_scenario_network.statistics 	interests_sent 	130111
scalar cost_scenario_network.node[0].core_layer 	interests[0] 	130111
scalar cost_scenario_network.node[0].core_layer 	data[0] 	92394
scalar cost_scenario_network.node[0].core_layer 	repo_int[0] 	92395
scalar cost_scenario_network.node[0].content_store 	p_hit[0] 	0.28987556778443
scalar cost_scenario_network.node[0].content_store 	hits[0] 	37716
scalar cost_scenario_network.node[0].content_store 	misses[0] 	92395
scalar cost_scenario_network.node[0].content_store 	decision_yes[0] 	92394
scalar cost_scenario_network.node[0].content_store 	decision_no[0] 	0
scalar cost_scenario_network.node[0].content_store 	decision_ratio[0] 	1
scalar cost_scenario_network.node[1].core_layer 	interests[1] 	45597
scalar cost_scenario_network.node[1].core_layer 	repo_load[1] 	45597
scalar cost_scenario_network.node[1].core_layer 	data[1] 	0
scalar cost_scenario_network.node[1].content_store 	p_hit[1] 	0
scalar cost_scenario_network.node[1].content_store 	hits[1] 	0
scalar cost_scenario_network.node[1].content_store 	misses[1] 	45597
scalar cost_scenario_network.node[1].content_store 	decision_yes[1] 	0
scalar cost_scenario_network.node[1].content_store 	decision_no[1] 	45597
scalar cost_scenario_network.node[1].content_store 	decision_ratio[1] 	0
scalar cost_scenario_network.node[2].core_layer 	interests[2] 	23206
scalar cost_scenario_network.node[2].core_layer 	repo_load[2] 	23206
scalar cost_scenario_network.node[2].core_layer 	data[2] 	0
scalar cost_scenario_network.node[2].content_store 	p_hit[2] 	0
scalar cost_scenario_network.node[2].content_store 	hits[2] 	0
scalar cost_scenario_network.node[2].content_store 	misses[2] 	23206
scalar cost_scenario_network.node[2].content_store 	decision_yes[2] 	0
scalar cost_scenario_network.node[2].content_store 	decision_no[2] 	23206
scalar cost_scenario_network.node[2].content_store 	decision_ratio[2] 	0
scalar cost_scenario_network.node[3].core_layer 	interests[3] 	23592
scalar cost_scenario_network.node[3].core_layer 	repo_load[3] 	23592
scalar cost_scenario_network.node[3].core_layer 	data[3] 	0
scalar cost_scenario_network.node[3].content_store 	p_hit[3] 	0
scalar cost_scenario_network.node[3].content_store 	hits[3] 	0
scalar cost_scenario_network.node[3].content_store 	misses[3] 	23592
scalar cost_scenario_network.node[3].content_store 	decision_yes[3] 	0
scalar cost_scenario_network.node[3].content_store 	decision_no[3] 	23592
scalar cost_scenario_network.node[3].content_store 	decision_ratio[3] 	0
scalar cost_scenario_network.client[0] 	hdistance[0] 	1.4202444085774
scalar cost_scenario_network.client[0] 	downloads[0] 	130110
scalar cost_scenario_network.client[0] 	avg_time[0] 	0
scalar cost_scenario_network.client[0] 	interests_sent[0] 	130111
