version 2
run General-5-20140429-10:18:34-16730
attr D fix0.01
attr F nrr
attr R lru
attr a 0.8
attr configname General
attr csize 1000
attr ctlg 10^5
attr datetime 20140429-10:18:34
attr experiment General
attr inifile omnetpp.ini
attr iterationvars "$net=one_cache_scenario_with_free_link, $rep=3, $priceratiovalue=1, $a=0.8, $ctlg=10^5, $F=nrr, $ttl=1000, $D=fix0.01, $xi=1, $R=lru, $csize=1000"
attr iterationvars2 "$net=one_cache_scenario_with_free_link, $rep=3, $priceratiovalue=1, $a=0.8, $ctlg=10^5, $F=nrr, $ttl=1000, $D=fix0.01, $xi=1, $R=lru, $csize=1000, $repetition=0"
attr measurement "$net=one_cache_scenario_with_free_link, $rep=3, $priceratiovalue=1, $a=0.8, $ctlg=10^5, $F=nrr, $ttl=1000, $D=fix0.01, $xi=1, $R=lru, $csize=1000"
attr net one_cache_scenario_with_free_link
attr network networks.${net=one_cache_scenario_with_free_link}_network
attr priceratiovalue 1
attr processid 16730
attr rep 3
attr repetition 0
attr replication #0
attr resultdir results
attr runnumber 5
attr seedset 3
attr ttl 1000
attr xi 1

scalar . 	a 	0.8
scalar . 	csize 	1000
scalar . 	priceratiovalue 	1
scalar . 	rep 	3
scalar . 	ttl 	1000
scalar . 	xi 	1
scalar one_cache_scenario_with_free_link_network.content_distribution 	repo-0 	3
scalar one_cache_scenario_with_free_link_network.content_distribution 	repo-1 	4
scalar one_cache_scenario_with_free_link_network.content_distribution 	client-0 	0
scalar one_cache_scenario_with_free_link_network.content_distribution 	repo-0_card 	50325
scalar one_cache_scenario_with_free_link_network.content_distribution 	repo-1_card 	49675
scalar one_cache_scenario_with_free_link_network.statistics 	p_hit 	0.094873387608374
scalar one_cache_scenario_with_free_link_network.statistics 	interests 	90796.8
scalar one_cache_scenario_with_free_link_network.statistics 	data 	54788.4
scalar one_cache_scenario_with_free_link_network.statistics 	hdistance 	1.5215449728397
scalar one_cache_scenario_with_free_link_network.statistics 	avg_time 	0
scalar one_cache_scenario_with_free_link_network.statistics 	downloads 	180042
scalar one_cache_scenario_with_free_link_network.statistics 	total_cost 	67677
scalar one_cache_scenario_with_free_link_network.statistics 	interests_sent 	180042
scalar one_cache_scenario_with_free_link_network.node[0].core_layer 	interests[0] 	180042
scalar one_cache_scenario_with_free_link_network.node[0].core_layer 	data[0] 	136971
scalar one_cache_scenario_with_free_link_network.node[0].core_layer 	repo_int[0] 	136971
scalar one_cache_scenario_with_free_link_network.node[0].content_store 	p_hit[0] 	0.23922751358016
scalar one_cache_scenario_with_free_link_network.node[0].content_store 	hits[0] 	43071
scalar one_cache_scenario_with_free_link_network.node[0].content_store 	misses[0] 	136971
scalar one_cache_scenario_with_free_link_network.node[0].content_store 	decision_yes[0] 	1355
scalar one_cache_scenario_with_free_link_network.node[0].content_store 	decision_no[0] 	135616
scalar one_cache_scenario_with_free_link_network.node[1].core_layer 	interests[1] 	69294
scalar one_cache_scenario_with_free_link_network.node[1].core_layer 	data[1] 	69294
scalar one_cache_scenario_with_free_link_network.node[1].content_store 	p_hit[1] 	0
scalar one_cache_scenario_with_free_link_network.node[1].content_store 	hits[1] 	0
scalar one_cache_scenario_with_free_link_network.node[1].content_store 	misses[1] 	69294
scalar one_cache_scenario_with_free_link_network.node[1].content_store 	decision_yes[1] 	0
scalar one_cache_scenario_with_free_link_network.node[1].content_store 	decision_no[1] 	69294
scalar one_cache_scenario_with_free_link_network.node[2].core_layer 	interests[2] 	67677
scalar one_cache_scenario_with_free_link_network.node[2].core_layer 	data[2] 	67677
scalar one_cache_scenario_with_free_link_network.node[2].content_store 	p_hit[2] 	0
scalar one_cache_scenario_with_free_link_network.node[2].content_store 	hits[2] 	0
scalar one_cache_scenario_with_free_link_network.node[2].content_store 	misses[2] 	67677
scalar one_cache_scenario_with_free_link_network.node[2].content_store 	decision_yes[2] 	0
scalar one_cache_scenario_with_free_link_network.node[2].content_store 	decision_no[2] 	67677
scalar one_cache_scenario_with_free_link_network.node[3].core_layer 	interests[3] 	69294
scalar one_cache_scenario_with_free_link_network.node[3].core_layer 	repo_load[3] 	69294
scalar one_cache_scenario_with_free_link_network.node[3].core_layer 	data[3] 	0
scalar one_cache_scenario_with_free_link_network.node[3].content_store 	p_hit[3] 	0
scalar one_cache_scenario_with_free_link_network.node[3].content_store 	hits[3] 	0
scalar one_cache_scenario_with_free_link_network.node[3].content_store 	misses[3] 	69294
scalar one_cache_scenario_with_free_link_network.node[3].content_store 	decision_yes[3] 	0
scalar one_cache_scenario_with_free_link_network.node[3].content_store 	decision_no[3] 	69294
scalar one_cache_scenario_with_free_link_network.node[4].core_layer 	interests[4] 	67677
scalar one_cache_scenario_with_free_link_network.node[4].core_layer 	repo_load[4] 	67677
scalar one_cache_scenario_with_free_link_network.node[4].core_layer 	data[4] 	0
scalar one_cache_scenario_with_free_link_network.node[4].content_store 	p_hit[4] 	0
scalar one_cache_scenario_with_free_link_network.node[4].content_store 	hits[4] 	0
scalar one_cache_scenario_with_free_link_network.node[4].content_store 	misses[4] 	67677
scalar one_cache_scenario_with_free_link_network.node[4].content_store 	decision_yes[4] 	0
scalar one_cache_scenario_with_free_link_network.node[4].content_store 	decision_no[4] 	67677
scalar one_cache_scenario_with_free_link_network.client[0] 	hdistance[0] 	1.5215449728397
scalar one_cache_scenario_with_free_link_network.client[0] 	downloads[0] 	180042
scalar one_cache_scenario_with_free_link_network.client[0] 	avg_time[0] 	0
scalar one_cache_scenario_with_free_link_network.client[0] 	interests_sent[0] 	180042
