version 2
run General-1-20140429-10:20:53-17365
attr D fix0.01
attr F nrr
attr R lru
attr a 0.8
attr configname General
attr csize 1000
attr ctlg 10^5
attr datetime 20140429-10:20:53
attr experiment General
attr inifile omnetpp.ini
attr iterationvars "$net=one_cache_scenario_with_free_link, $rep=4, $priceratiovalue=1, $a=0.8, $ctlg=10^5, $F=nrr, $ttl=1000, $D=fix0.01, $xi=1, $R=lru, $csize=1000"
attr iterationvars2 "$net=one_cache_scenario_with_free_link, $rep=4, $priceratiovalue=1, $a=0.8, $ctlg=10^5, $F=nrr, $ttl=1000, $D=fix0.01, $xi=1, $R=lru, $csize=1000, $repetition=0"
attr measurement "$net=one_cache_scenario_with_free_link, $rep=4, $priceratiovalue=1, $a=0.8, $ctlg=10^5, $F=nrr, $ttl=1000, $D=fix0.01, $xi=1, $R=lru, $csize=1000"
attr net one_cache_scenario_with_free_link
attr network networks.${net=one_cache_scenario_with_free_link}_network
attr priceratiovalue 1
attr processid 17365
attr rep 4
attr repetition 0
attr replication #0
attr resultdir results
attr runnumber 1
attr seedset 4
attr ttl 1000
attr xi 1

scalar . 	a 	0.8
scalar . 	csize 	1000
scalar . 	priceratiovalue 	1
scalar . 	rep 	4
scalar . 	ttl 	1000
scalar . 	xi 	1
scalar one_cache_scenario_with_free_link_network.content_distribution 	repo-0 	3
scalar one_cache_scenario_with_free_link_network.content_distribution 	repo-1 	4
scalar one_cache_scenario_with_free_link_network.content_distribution 	client-0 	0
scalar one_cache_scenario_with_free_link_network.content_distribution 	repo-0_card 	50123
scalar one_cache_scenario_with_free_link_network.content_distribution 	repo-1_card 	49877
scalar one_cache_scenario_with_free_link_network.statistics 	p_hit 	0.096525480472816
scalar one_cache_scenario_with_free_link_network.statistics 	interests 	90504.6
scalar one_cache_scenario_with_free_link_network.statistics 	data 	54512.4
scalar one_cache_scenario_with_free_link_network.statistics 	hdistance 	1.5145614883225
scalar one_cache_scenario_with_free_link_network.statistics 	avg_time 	0
scalar one_cache_scenario_with_free_link_network.statistics 	downloads 	179961
scalar one_cache_scenario_with_free_link_network.statistics 	total_cost 	67976
scalar one_cache_scenario_with_free_link_network.statistics 	interests_sent 	179961
scalar one_cache_scenario_with_free_link_network.node[0].core_layer 	interests[0] 	179961
scalar one_cache_scenario_with_free_link_network.node[0].core_layer 	data[0] 	136281
scalar one_cache_scenario_with_free_link_network.node[0].core_layer 	repo_int[0] 	136281
scalar one_cache_scenario_with_free_link_network.node[0].content_store 	p_hit[0] 	0.24271925583877
scalar one_cache_scenario_with_free_link_network.node[0].content_store 	hits[0] 	43680
scalar one_cache_scenario_with_free_link_network.node[0].content_store 	misses[0] 	136281
scalar one_cache_scenario_with_free_link_network.node[0].content_store 	decision_yes[0] 	1353
scalar one_cache_scenario_with_free_link_network.node[0].content_store 	decision_no[0] 	134928
scalar one_cache_scenario_with_free_link_network.node[1].core_layer 	interests[1] 	68305
scalar one_cache_scenario_with_free_link_network.node[1].core_layer 	data[1] 	68305
scalar one_cache_scenario_with_free_link_network.node[1].content_store 	p_hit[1] 	0
scalar one_cache_scenario_with_free_link_network.node[1].content_store 	hits[1] 	0
scalar one_cache_scenario_with_free_link_network.node[1].content_store 	misses[1] 	68305
scalar one_cache_scenario_with_free_link_network.node[1].content_store 	decision_yes[1] 	0
scalar one_cache_scenario_with_free_link_network.node[1].content_store 	decision_no[1] 	68305
scalar one_cache_scenario_with_free_link_network.node[2].core_layer 	interests[2] 	67976
scalar one_cache_scenario_with_free_link_network.node[2].core_layer 	data[2] 	67976
scalar one_cache_scenario_with_free_link_network.node[2].content_store 	p_hit[2] 	0
scalar one_cache_scenario_with_free_link_network.node[2].content_store 	hits[2] 	0
scalar one_cache_scenario_with_free_link_network.node[2].content_store 	misses[2] 	67976
scalar one_cache_scenario_with_free_link_network.node[2].content_store 	decision_yes[2] 	0
scalar one_cache_scenario_with_free_link_network.node[2].content_store 	decision_no[2] 	67976
scalar one_cache_scenario_with_free_link_network.node[3].core_layer 	interests[3] 	68305
scalar one_cache_scenario_with_free_link_network.node[3].core_layer 	repo_load[3] 	68305
scalar one_cache_scenario_with_free_link_network.node[3].core_layer 	data[3] 	0
scalar one_cache_scenario_with_free_link_network.node[3].content_store 	p_hit[3] 	0
scalar one_cache_scenario_with_free_link_network.node[3].content_store 	hits[3] 	0
scalar one_cache_scenario_with_free_link_network.node[3].content_store 	misses[3] 	68305
scalar one_cache_scenario_with_free_link_network.node[3].content_store 	decision_yes[3] 	0
scalar one_cache_scenario_with_free_link_network.node[3].content_store 	decision_no[3] 	68305
scalar one_cache_scenario_with_free_link_network.node[4].core_layer 	interests[4] 	67976
scalar one_cache_scenario_with_free_link_network.node[4].core_layer 	repo_load[4] 	67976
scalar one_cache_scenario_with_free_link_network.node[4].core_layer 	data[4] 	0
scalar one_cache_scenario_with_free_link_network.node[4].content_store 	p_hit[4] 	0
scalar one_cache_scenario_with_free_link_network.node[4].content_store 	hits[4] 	0
scalar one_cache_scenario_with_free_link_network.node[4].content_store 	misses[4] 	67976
scalar one_cache_scenario_with_free_link_network.node[4].content_store 	decision_yes[4] 	0
scalar one_cache_scenario_with_free_link_network.node[4].content_store 	decision_no[4] 	67976
scalar one_cache_scenario_with_free_link_network.client[0] 	hdistance[0] 	1.5145614883225
scalar one_cache_scenario_with_free_link_network.client[0] 	downloads[0] 	179961
scalar one_cache_scenario_with_free_link_network.client[0] 	avg_time[0] 	0
scalar one_cache_scenario_with_free_link_network.client[0] 	interests_sent[0] 	179961
