version 2
run General-2991-20140423-19:47:40-29987
attr D fix0.1
attr F nrr
attr R lru
attr a 0
attr configname General
attr csize 2
attr ctlg 10^3
attr datetime 20140423-19:47:40
attr experiment General
attr inifile omnetpp.ini
attr iterationvars "$net=simple_scenario, $rep=9, $priceratiovalue=4, $a=0, $ctlg=10^3, $F=nrr, $ttl=1000, $D=fix0.1, $R=lru, $csize=2"
attr iterationvars2 "$net=simple_scenario, $rep=9, $priceratiovalue=4, $a=0, $ctlg=10^3, $F=nrr, $ttl=1000, $D=fix0.1, $R=lru, $csize=2, $repetition=0"
attr measurement "$net=simple_scenario, $rep=9, $priceratiovalue=4, $a=0, $ctlg=10^3, $F=nrr, $ttl=1000, $D=fix0.1, $R=lru, $csize=2"
attr net simple_scenario
attr network networks.${net=simple_scenario}_network
attr priceratiovalue 4
attr processid 29987
attr rep 9
attr repetition 0
attr replication #0
attr resultdir results
attr runnumber 2991
attr seedset 9
attr ttl 1000

scalar . 	a 	0
scalar . 	csize 	2
scalar . 	priceratiovalue 	4
scalar . 	rep 	9
scalar . 	ttl 	1000
scalar simple_scenario_network.content_distribution 	repo-0 	3
scalar simple_scenario_network.content_distribution 	repo-1 	4
scalar simple_scenario_network.content_distribution 	client-0 	0
scalar simple_scenario_network.content_distribution 	repo-0_card 	514
scalar simple_scenario_network.content_distribution 	repo-1_card 	486
scalar simple_scenario_network.statistics 	p_hit 	0.0019564100709685
scalar simple_scenario_network.statistics 	interests 	107850.6
scalar simple_scenario_network.statistics 	data 	71808.8
scalar simple_scenario_network.statistics 	hdistance 	2.9865211311373
scalar simple_scenario_network.statistics 	avg_time 	0.001999735025
scalar simple_scenario_network.statistics 	downloads 	180208
scalar simple_scenario_network.statistics 	total_cost 	88102
scalar simple_scenario_network.node[0].core_layer 	interests[0] 	180209
scalar simple_scenario_network.node[0].core_layer 	data[0] 	179890
scalar simple_scenario_network.node[0].core_layer 	repo_int[0] 	179154
scalar simple_scenario_network.node[0].content_store 	p_hit[0] 	0.0017701668618105
scalar simple_scenario_network.node[0].content_store 	hits[0] 	319
scalar simple_scenario_network.node[0].content_store 	misses[0] 	179890
scalar simple_scenario_network.node[1].core_layer 	interests[1] 	92389
scalar simple_scenario_network.node[1].core_layer 	data[1] 	92035
scalar simple_scenario_network.node[1].content_store 	p_hit[1] 	0.0038316249769994
scalar simple_scenario_network.node[1].content_store 	hits[1] 	354
scalar simple_scenario_network.node[1].content_store 	misses[1] 	92035
scalar simple_scenario_network.node[2].core_layer 	interests[2] 	87501
scalar simple_scenario_network.node[2].core_layer 	data[2] 	87119
scalar simple_scenario_network.node[2].content_store 	p_hit[2] 	0.0043656643924069
scalar simple_scenario_network.node[2].content_store 	hits[2] 	382
scalar simple_scenario_network.node[2].content_store 	misses[2] 	87119
scalar simple_scenario_network.node[3].core_layer 	interests[3] 	92035
scalar simple_scenario_network.node[3].core_layer 	repo_load[3] 	92035
scalar simple_scenario_network.node[3].core_layer 	data[3] 	0
scalar simple_scenario_network.node[3].content_store 	p_hit[3] 	0
scalar simple_scenario_network.node[3].content_store 	hits[3] 	0
scalar simple_scenario_network.node[3].content_store 	misses[3] 	92035
scalar simple_scenario_network.node[4].core_layer 	interests[4] 	87119
scalar simple_scenario_network.node[4].core_layer 	repo_load[4] 	87119
scalar simple_scenario_network.node[4].core_layer 	data[4] 	0
scalar simple_scenario_network.node[4].content_store 	p_hit[4] 	0
scalar simple_scenario_network.node[4].content_store 	hits[4] 	0
scalar simple_scenario_network.node[4].content_store 	misses[4] 	87119
scalar simple_scenario_network.client[0] 	hdistance[0] 	2.9865211311373
scalar simple_scenario_network.client[0] 	downloads[0] 	180208
scalar simple_scenario_network.client[0] 	avg_time[0] 	0.001999735025
