version 2
run General-9-20140512-17:00:36-30182
attr D costprobprodcorr0.01
attr F spr
attr R lru
attr a 1
attr configname General
attr csize 1e3
attr ctlg 1e5
attr datetime 20140512-17:00:36
attr experiment General
attr inifile omnetpp.ini
attr iterationvars "$net=abilene_cost, $rep=1, $priceratiovalue=10, $weights=0.333_0.333_0.334, $a=1, $ctlg=1e5, $F=spr, $ttl=1000, $D=costprobprodcorr0.01, $xi=8, $R=lru, $csize=1e3"
attr iterationvars2 "$net=abilene_cost, $rep=1, $priceratiovalue=10, $weights=0.333_0.333_0.334, $a=1, $ctlg=1e5, $F=spr, $ttl=1000, $D=costprobprodcorr0.01, $xi=8, $R=lru, $csize=1e3, $repetition=0"
attr measurement "$net=abilene_cost, $rep=1, $priceratiovalue=10, $weights=0.333_0.333_0.334, $a=1, $ctlg=1e5, $F=spr, $ttl=1000, $D=costprobprodcorr0.01, $xi=8, $R=lru, $csize=1e3"
attr net abilene_cost
attr network networks.${net=abilene_cost}_network
attr priceratiovalue 10
attr processid 30182
attr rep 1
attr repetition 0
attr replication #0
attr resultdir results
attr runnumber 9
attr seedset 1
attr ttl 1000
attr weights 0.333_0.333_0.334
attr xi 8

scalar . 	a 	1
scalar . 	csize 	1e3
scalar . 	ctlg 	1e5
scalar . 	priceratiovalue 	10
scalar . 	rep 	1
scalar . 	ttl 	1000
scalar . 	xi 	8
scalar abilene_cost_network.content_distribution 	repo-0 	11
scalar abilene_cost_network.content_distribution 	repo-1 	12
scalar abilene_cost_network.content_distribution 	repo-2 	13
scalar abilene_cost_network.content_distribution 	client-0 	3
scalar abilene_cost_network.content_distribution 	client-1 	7
scalar abilene_cost_network.content_distribution 	client-2 	10
scalar abilene_cost_network.content_distribution 	repo-0_card 	33396
scalar abilene_cost_network.content_distribution 	repo-1_card 	33039
scalar abilene_cost_network.content_distribution 	repo-2_card 	33565
scalar abilene_cost_network.statistics 	p_hit 	0.065533565799523
scalar abilene_cost_network.statistics 	interests 	155905.92857143
scalar abilene_cost_network.statistics 	data 	117402.28571429
scalar abilene_cost_network.statistics 	hdistance 	3.7838616505501
scalar abilene_cost_network.statistics 	avg_time 	0
scalar abilene_cost_network.statistics 	downloads 	539051
scalar abilene_cost_network.statistics 	total_cost 	1012747
scalar abilene_cost_network.statistics 	total_replicas 	100000
scalar abilene_cost_network.statistics 	interests_sent 	539051
scalar abilene_cost_network.node[0].core_layer 	interests[0] 	153773
scalar abilene_cost_network.node[0].core_layer 	data[0] 	153773
scalar abilene_cost_network.node[0].core_layer 	repo_int[0] 	396012
scalar abilene_cost_network.node[0].content_store 	p_hit[0] 	0
scalar abilene_cost_network.node[0].content_store 	hits[0] 	0
scalar abilene_cost_network.node[0].content_store 	misses[0] 	153773
scalar abilene_cost_network.node[0].content_store 	decision_yes[0] 	0
scalar abilene_cost_network.node[0].content_store 	decision_no[0] 	153773
scalar abilene_cost_network.node[0].content_store 	decision_ratio[0] 	0
scalar abilene_cost_network.node[0].content_store 	correction_factor[0] 	2.9940119461974e-10
scalar abilene_cost_network.node[0].content_store 	xi[0] 	8
scalar abilene_cost_network.node[1].core_layer 	interests[1] 	103421
scalar abilene_cost_network.node[1].core_layer 	data[1] 	103421
scalar abilene_cost_network.node[1].content_store 	p_hit[1] 	0
scalar abilene_cost_network.node[1].content_store 	hits[1] 	0
scalar abilene_cost_network.node[1].content_store 	misses[1] 	103421
scalar abilene_cost_network.node[1].content_store 	decision_yes[1] 	0
scalar abilene_cost_network.node[1].content_store 	decision_no[1] 	103421
scalar abilene_cost_network.node[1].content_store 	decision_ratio[1] 	0
scalar abilene_cost_network.node[1].content_store 	correction_factor[1] 	2.9940119461974e-10
scalar abilene_cost_network.node[1].content_store 	xi[1] 	8
scalar abilene_cost_network.node[2].core_layer 	interests[2] 	103421
scalar abilene_cost_network.node[2].core_layer 	data[2] 	103421
scalar abilene_cost_network.node[2].content_store 	p_hit[2] 	0
scalar abilene_cost_network.node[2].content_store 	hits[2] 	0
scalar abilene_cost_network.node[2].content_store 	misses[2] 	103421
scalar abilene_cost_network.node[2].content_store 	decision_yes[2] 	0
scalar abilene_cost_network.node[2].content_store 	decision_no[2] 	103421
scalar abilene_cost_network.node[2].content_store 	decision_ratio[2] 	0
scalar abilene_cost_network.node[2].content_store 	correction_factor[2] 	2.9940119461974e-10
scalar abilene_cost_network.node[2].content_store 	xi[2] 	8
scalar abilene_cost_network.node[3].core_layer 	interests[3] 	232004
scalar abilene_cost_network.node[3].core_layer 	data[3] 	221663
scalar abilene_cost_network.node[3].content_store 	p_hit[3] 	0.044572507370563
scalar abilene_cost_network.node[3].content_store 	hits[3] 	10341
scalar abilene_cost_network.node[3].content_store 	misses[3] 	221663
scalar abilene_cost_network.node[3].content_store 	decision_yes[3] 	842
scalar abilene_cost_network.node[3].content_store 	decision_no[3] 	220821
scalar abilene_cost_network.node[3].content_store 	decision_ratio[3] 	0.0037985590739095
scalar abilene_cost_network.node[3].content_store 	correction_factor[3] 	2.9940119461974e-10
scalar abilene_cost_network.node[3].content_store 	xi[3] 	8
scalar abilene_cost_network.node[4].core_layer 	interests[4] 	104510
scalar abilene_cost_network.node[4].core_layer 	data[4] 	104510
scalar abilene_cost_network.node[4].content_store 	p_hit[4] 	0
scalar abilene_cost_network.node[4].content_store 	hits[4] 	0
scalar abilene_cost_network.node[4].content_store 	misses[4] 	104510
scalar abilene_cost_network.node[4].content_store 	decision_yes[4] 	0
scalar abilene_cost_network.node[4].content_store 	decision_no[4] 	104510
scalar abilene_cost_network.node[4].content_store 	decision_ratio[4] 	0
scalar abilene_cost_network.node[4].content_store 	correction_factor[4] 	2.9940119461974e-10
scalar abilene_cost_network.node[4].content_store 	xi[4] 	8
scalar abilene_cost_network.node[5].core_layer 	interests[5] 	156627
scalar abilene_cost_network.node[5].core_layer 	data[5] 	156627
scalar abilene_cost_network.node[5].content_store 	p_hit[5] 	0
scalar abilene_cost_network.node[5].content_store 	hits[5] 	0
scalar abilene_cost_network.node[5].content_store 	misses[5] 	156627
scalar abilene_cost_network.node[5].content_store 	decision_yes[5] 	0
scalar abilene_cost_network.node[5].content_store 	decision_no[5] 	156627
scalar abilene_cost_network.node[5].content_store 	decision_ratio[5] 	0
scalar abilene_cost_network.node[5].content_store 	correction_factor[5] 	2.9940119461974e-10
scalar abilene_cost_network.node[5].content_store 	xi[5] 	8
scalar abilene_cost_network.node[6].core_layer 	interests[6] 	52117
scalar abilene_cost_network.node[6].core_layer 	data[6] 	52117
scalar abilene_cost_network.node[6].content_store 	p_hit[6] 	0
scalar abilene_cost_network.node[6].content_store 	hits[6] 	0
scalar abilene_cost_network.node[6].content_store 	misses[6] 	52117
scalar abilene_cost_network.node[6].content_store 	decision_yes[6] 	0
scalar abilene_cost_network.node[6].content_store 	decision_no[6] 	52117
scalar abilene_cost_network.node[6].content_store 	decision_ratio[6] 	0
scalar abilene_cost_network.node[6].content_store 	correction_factor[6] 	2.9940119461974e-10
scalar abilene_cost_network.node[6].content_store 	xi[6] 	8
scalar abilene_cost_network.node[7].core_layer 	interests[7] 	245402
scalar abilene_cost_network.node[7].core_layer 	data[7] 	232201
scalar abilene_cost_network.node[7].content_store 	p_hit[7] 	0.053793367617216
scalar abilene_cost_network.node[7].content_store 	hits[7] 	13201
scalar abilene_cost_network.node[7].content_store 	misses[7] 	232201
scalar abilene_cost_network.node[7].content_store 	decision_yes[7] 	1682
scalar abilene_cost_network.node[7].content_store 	decision_no[7] 	230519
scalar abilene_cost_network.node[7].content_store 	decision_ratio[7] 	0.0072437241872343
scalar abilene_cost_network.node[7].content_store 	correction_factor[7] 	2.9940119461974e-10
scalar abilene_cost_network.node[7].content_store 	xi[7] 	8
scalar abilene_cost_network.node[8].core_layer 	interests[8] 	180084
scalar abilene_cost_network.node[8].core_layer 	data[8] 	168927
scalar abilene_cost_network.node[8].content_store 	p_hit[8] 	0.061954421270074
scalar abilene_cost_network.node[8].content_store 	hits[8] 	11157
scalar abilene_cost_network.node[8].content_store 	misses[8] 	168927
scalar abilene_cost_network.node[8].content_store 	decision_yes[8] 	1698
scalar abilene_cost_network.node[8].content_store 	decision_no[8] 	167229
scalar abilene_cost_network.node[8].content_store 	decision_ratio[8] 	0.010051679127671
scalar abilene_cost_network.node[8].content_store 	correction_factor[8] 	2.9940119461974e-10
scalar abilene_cost_network.node[8].content_store 	xi[8] 	8
scalar abilene_cost_network.node[9].core_layer 	interests[9] 	224317
scalar abilene_cost_network.node[9].core_layer 	data[9] 	136790
scalar abilene_cost_network.node[9].content_store 	p_hit[9] 	0.39019334245733
scalar abilene_cost_network.node[9].content_store 	hits[9] 	87527
scalar abilene_cost_network.node[9].content_store 	misses[9] 	136790
scalar abilene_cost_network.node[9].content_store 	decision_yes[9] 	2479
scalar abilene_cost_network.node[9].content_store 	decision_no[9] 	134311
scalar abilene_cost_network.node[9].content_store 	decision_ratio[9] 	0.018122669785803
scalar abilene_cost_network.node[9].content_store 	correction_factor[9] 	2.9940119461974e-10
scalar abilene_cost_network.node[9].content_store 	xi[9] 	8
scalar abilene_cost_network.node[10].core_layer 	interests[10] 	230995
scalar abilene_cost_network.node[10].core_layer 	data[10] 	210182
scalar abilene_cost_network.node[10].content_store 	p_hit[10] 	0.09010151734886
scalar abilene_cost_network.node[10].content_store 	hits[10] 	20813
scalar abilene_cost_network.node[10].content_store 	misses[10] 	210182
scalar abilene_cost_network.node[10].content_store 	decision_yes[10] 	885
scalar abilene_cost_network.node[10].content_store 	decision_no[10] 	209297
scalar abilene_cost_network.node[10].content_store 	decision_ratio[10] 	0.0042106364959892
scalar abilene_cost_network.node[10].content_store 	correction_factor[10] 	2.9940119461974e-10
scalar abilene_cost_network.node[10].content_store 	xi[10] 	8
scalar abilene_cost_network.node[11].core_layer 	interests[11] 	153773
scalar abilene_cost_network.node[11].core_layer 	repo_load[11] 	153773
scalar abilene_cost_network.node[11].core_layer 	data[11] 	0
scalar abilene_cost_network.node[11].content_store 	p_hit[11] 	0
scalar abilene_cost_network.node[11].content_store 	hits[11] 	0
scalar abilene_cost_network.node[11].content_store 	misses[11] 	153773
scalar abilene_cost_network.node[11].content_store 	decision_yes[11] 	0
scalar abilene_cost_network.node[11].content_store 	decision_no[11] 	153773
scalar abilene_cost_network.node[11].content_store 	decision_ratio[11] 	0
scalar abilene_cost_network.node[12].core_layer 	interests[12] 	156627
scalar abilene_cost_network.node[12].core_layer 	repo_load[12] 	156627
scalar abilene_cost_network.node[12].core_layer 	data[12] 	0
scalar abilene_cost_network.node[12].content_store 	p_hit[12] 	0
scalar abilene_cost_network.node[12].content_store 	hits[12] 	0
scalar abilene_cost_network.node[12].content_store 	misses[12] 	156627
scalar abilene_cost_network.node[12].content_store 	decision_yes[12] 	0
scalar abilene_cost_network.node[12].content_store 	decision_no[12] 	156627
scalar abilene_cost_network.node[12].content_store 	decision_ratio[12] 	0
scalar abilene_cost_network.node[13].core_layer 	interests[13] 	85612
scalar abilene_cost_network.node[13].core_layer 	repo_load[13] 	85612
scalar abilene_cost_network.node[13].core_layer 	data[13] 	0
scalar abilene_cost_network.node[13].content_store 	p_hit[13] 	0
scalar abilene_cost_network.node[13].content_store 	hits[13] 	0
scalar abilene_cost_network.node[13].content_store 	misses[13] 	85612
scalar abilene_cost_network.node[13].content_store 	decision_yes[13] 	0
scalar abilene_cost_network.node[13].content_store 	decision_no[13] 	85612
scalar abilene_cost_network.node[13].content_store 	decision_ratio[13] 	0
scalar abilene_cost_network.client[3] 	hdistance[3] 	3.9083678191608
scalar abilene_cost_network.client[3] 	downloads[3] 	179784
scalar abilene_cost_network.client[3] 	avg_time[3] 	0
scalar abilene_cost_network.client[3] 	interests_sent[3] 	179784
scalar abilene_cost_network.client[7] 	hdistance[7] 	3.9100139314572
scalar abilene_cost_network.client[7] 	downloads[7] 	179450
scalar abilene_cost_network.client[7] 	avg_time[7] 	0
scalar abilene_cost_network.client[7] 	interests_sent[7] 	179450
scalar abilene_cost_network.client[10] 	hdistance[10] 	3.5332032010322
scalar abilene_cost_network.client[10] 	downloads[10] 	179817
scalar abilene_cost_network.client[10] 	avg_time[10] 	0
scalar abilene_cost_network.client[10] 	interests_sent[10] 	179817
