version 2
run General-380-20140502-01:46:36-9264
attr D costprob0.001
attr F nrr
attr R lru
attr a 1
attr configname General
attr csize 1e3
attr ctlg 1e5
attr datetime 20140502-01:46:36
attr experiment General
attr inifile omnetpp.ini
attr iterationvars "$net=three_caches_scenario_3_links, $rep=1, $priceratiovalue=5, $weights=0.7_0.15_0.15, $a=1, $ctlg=1e5, $F=nrr, $ttl=1000, $D=costprob0.001, $xi=1, $R=lru, $csize=1e3"
attr iterationvars2 "$net=three_caches_scenario_3_links, $rep=1, $priceratiovalue=5, $weights=0.7_0.15_0.15, $a=1, $ctlg=1e5, $F=nrr, $ttl=1000, $D=costprob0.001, $xi=1, $R=lru, $csize=1e3, $repetition=0"
attr measurement "$net=three_caches_scenario_3_links, $rep=1, $priceratiovalue=5, $weights=0.7_0.15_0.15, $a=1, $ctlg=1e5, $F=nrr, $ttl=1000, $D=costprob0.001, $xi=1, $R=lru, $csize=1e3"
attr net three_caches_scenario_3_links
attr network networks.${net=three_caches_scenario_3_links}_network
attr priceratiovalue 5
attr processid 9264
attr rep 1
attr repetition 0
attr replication #0
attr resultdir results
attr runnumber 380
attr seedset 1
attr ttl 1000
attr weights 0.7_0.15_0.15
attr xi 1

scalar . 	a 	1
scalar . 	csize 	1e3
scalar . 	ctlg 	1e5
scalar . 	priceratiovalue 	5
scalar . 	rep 	1
scalar . 	ttl 	1000
scalar . 	xi 	1
scalar three_caches_scenario_3_links_network.content_distribution 	repo-0 	4
scalar three_caches_scenario_3_links_network.content_distribution 	repo-1 	5
scalar three_caches_scenario_3_links_network.content_distribution 	repo-2 	6
scalar three_caches_scenario_3_links_network.content_distribution 	client-0 	0
scalar three_caches_scenario_3_links_network.content_distribution 	repo-0_card 	70018
scalar three_caches_scenario_3_links_network.content_distribution 	repo-1_card 	15023
scalar three_caches_scenario_3_links_network.content_distribution 	repo-2_card 	14959
scalar three_caches_scenario_3_links_network.statistics 	p_hit 	0.059152452679849
scalar three_caches_scenario_3_links_network.statistics 	interests 	70998.142857143
scalar three_caches_scenario_3_links_network.statistics 	data 	45315.714285714
scalar three_caches_scenario_3_links_network.statistics 	hdistance 	1.8652552884963
scalar three_caches_scenario_3_links_network.statistics 	avg_time 	0
scalar three_caches_scenario_3_links_network.statistics 	downloads 	179777
scalar three_caches_scenario_3_links_network.statistics 	total_cost 	50108
scalar three_caches_scenario_3_links_network.statistics 	total_replicas 	100000
scalar three_caches_scenario_3_links_network.statistics 	interests_sent 	179777
scalar three_caches_scenario_3_links_network.node[0].core_layer 	interests[0] 	179777
scalar three_caches_scenario_3_links_network.node[0].core_layer 	data[0] 	166831
scalar three_caches_scenario_3_links_network.node[0].core_layer 	repo_int[0] 	150379
scalar three_caches_scenario_3_links_network.node[0].content_store 	p_hit[0] 	0.07201143639064
scalar three_caches_scenario_3_links_network.node[0].content_store 	hits[0] 	12946
scalar three_caches_scenario_3_links_network.node[0].content_store 	misses[0] 	166831
scalar three_caches_scenario_3_links_network.node[0].content_store 	decision_yes[0] 	56
scalar three_caches_scenario_3_links_network.node[0].content_store 	decision_no[0] 	166775
scalar three_caches_scenario_3_links_network.node[1].core_layer 	interests[1] 	132259
scalar three_caches_scenario_3_links_network.node[1].core_layer 	data[1] 	132259
scalar three_caches_scenario_3_links_network.node[1].content_store 	p_hit[1] 	0
scalar three_caches_scenario_3_links_network.node[1].content_store 	hits[1] 	0
scalar three_caches_scenario_3_links_network.node[1].content_store 	misses[1] 	132259
scalar three_caches_scenario_3_links_network.node[1].content_store 	decision_yes[1] 	0
scalar three_caches_scenario_3_links_network.node[1].content_store 	decision_no[1] 	132259
scalar three_caches_scenario_3_links_network.node[2].core_layer 	interests[2] 	18517
scalar three_caches_scenario_3_links_network.node[2].core_layer 	data[2] 	10123
scalar three_caches_scenario_3_links_network.node[2].content_store 	p_hit[2] 	0.45331317168008
scalar three_caches_scenario_3_links_network.node[2].content_store 	hits[2] 	8394
scalar three_caches_scenario_3_links_network.node[2].content_store 	misses[2] 	10123
scalar three_caches_scenario_3_links_network.node[2].content_store 	decision_yes[2] 	9
scalar three_caches_scenario_3_links_network.node[2].content_store 	decision_no[2] 	10114
scalar three_caches_scenario_3_links_network.node[3].core_layer 	interests[3] 	16055
scalar three_caches_scenario_3_links_network.node[3].core_layer 	data[3] 	7997
scalar three_caches_scenario_3_links_network.node[3].content_store 	p_hit[3] 	0.50189971971348
scalar three_caches_scenario_3_links_network.node[3].content_store 	hits[3] 	8058
scalar three_caches_scenario_3_links_network.node[3].content_store 	misses[3] 	7997
scalar three_caches_scenario_3_links_network.node[3].content_store 	decision_yes[3] 	50
scalar three_caches_scenario_3_links_network.node[3].content_store 	decision_no[3] 	7947
scalar three_caches_scenario_3_links_network.node[4].core_layer 	interests[4] 	132259
scalar three_caches_scenario_3_links_network.node[4].core_layer 	repo_load[4] 	132259
scalar three_caches_scenario_3_links_network.node[4].core_layer 	data[4] 	0
scalar three_caches_scenario_3_links_network.node[4].content_store 	p_hit[4] 	0
scalar three_caches_scenario_3_links_network.node[4].content_store 	hits[4] 	0
scalar three_caches_scenario_3_links_network.node[4].content_store 	misses[4] 	132259
scalar three_caches_scenario_3_links_network.node[4].content_store 	decision_yes[4] 	0
scalar three_caches_scenario_3_links_network.node[4].content_store 	decision_no[4] 	132259
scalar three_caches_scenario_3_links_network.node[5].core_layer 	interests[5] 	10123
scalar three_caches_scenario_3_links_network.node[5].core_layer 	repo_load[5] 	10123
scalar three_caches_scenario_3_links_network.node[5].core_layer 	data[5] 	0
scalar three_caches_scenario_3_links_network.node[5].content_store 	p_hit[5] 	0
scalar three_caches_scenario_3_links_network.node[5].content_store 	hits[5] 	0
scalar three_caches_scenario_3_links_network.node[5].content_store 	misses[5] 	10123
scalar three_caches_scenario_3_links_network.node[5].content_store 	decision_yes[5] 	0
scalar three_caches_scenario_3_links_network.node[5].content_store 	decision_no[5] 	10123
scalar three_caches_scenario_3_links_network.node[6].core_layer 	interests[6] 	7997
scalar three_caches_scenario_3_links_network.node[6].core_layer 	repo_load[6] 	7997
scalar three_caches_scenario_3_links_network.node[6].core_layer 	data[6] 	0
scalar three_caches_scenario_3_links_network.node[6].content_store 	p_hit[6] 	0
scalar three_caches_scenario_3_links_network.node[6].content_store 	hits[6] 	0
scalar three_caches_scenario_3_links_network.node[6].content_store 	misses[6] 	7997
scalar three_caches_scenario_3_links_network.node[6].content_store 	decision_yes[6] 	0
scalar three_caches_scenario_3_links_network.node[6].content_store 	decision_no[6] 	7997
scalar three_caches_scenario_3_links_network.client[0] 	hdistance[0] 	1.8652552884963
scalar three_caches_scenario_3_links_network.client[0] 	downloads[0] 	179777
scalar three_caches_scenario_3_links_network.client[0] 	avg_time[0] 	0
scalar three_caches_scenario_3_links_network.client[0] 	interests_sent[0] 	179777
