version 2
run General-555-20140424-12:55:47-13256
attr D prob_cache
attr F nrr
attr R lru
attr a 0.8
attr configname General
attr csize 10
attr ctlg 10^3
attr datetime 20140424-12:55:47
attr experiment General
attr inifile omnetpp.ini
attr iterationvars "$net=simple_scenario, $rep=3, $priceratiovalue=7, $a=0.8, $ctlg=10^3, $F=nrr, $ttl=1000, $D=prob_cache, $R=lru, $csize=10"
attr iterationvars2 "$net=simple_scenario, $rep=3, $priceratiovalue=7, $a=0.8, $ctlg=10^3, $F=nrr, $ttl=1000, $D=prob_cache, $R=lru, $csize=10, $repetition=0"
attr measurement "$net=simple_scenario, $rep=3, $priceratiovalue=7, $a=0.8, $ctlg=10^3, $F=nrr, $ttl=1000, $D=prob_cache, $R=lru, $csize=10"
attr net simple_scenario
attr network networks.${net=simple_scenario}_network
attr priceratiovalue 7
attr processid 13256
attr rep 3
attr repetition 0
attr replication #0
attr resultdir results
attr runnumber 555
attr seedset 3
attr ttl 1000

scalar . 	a 	0.8
scalar . 	csize 	10
scalar . 	priceratiovalue 	7
scalar . 	rep 	3
scalar . 	ttl 	1000
scalar simple_scenario_network.content_distribution 	repo-0 	3
scalar simple_scenario_network.content_distribution 	repo-1 	4
scalar simple_scenario_network.content_distribution 	client-0 	0
scalar simple_scenario_network.content_distribution 	repo-0_card 	524
scalar simple_scenario_network.content_distribution 	repo-1_card 	476
scalar simple_scenario_network.statistics 	p_hit 	0.078998250814366
scalar simple_scenario_network.statistics 	interests 	95473
scalar simple_scenario_network.statistics 	data 	59534
scalar simple_scenario_network.statistics 	hdistance 	2.4466679651632
scalar simple_scenario_network.statistics 	avg_time 	0.001997994735
scalar simple_scenario_network.statistics 	downloads 	179695
scalar simple_scenario_network.statistics 	total_cost 	67767
scalar simple_scenario_network.node[0].core_layer 	interests[0] 	179695
scalar simple_scenario_network.node[0].core_layer 	data[0] 	155686
scalar simple_scenario_network.node[0].core_layer 	repo_int[0] 	141984
scalar simple_scenario_network.node[0].content_store 	p_hit[0] 	0.13360972759398
scalar simple_scenario_network.node[0].content_store 	hits[0] 	24009
scalar simple_scenario_network.node[0].content_store 	misses[0] 	155686
scalar simple_scenario_network.node[1].core_layer 	interests[1] 	82140
scalar simple_scenario_network.node[1].core_layer 	data[1] 	75291
scalar simple_scenario_network.node[1].content_store 	p_hit[1] 	0.083382030679328
scalar simple_scenario_network.node[1].content_store 	hits[1] 	6849
scalar simple_scenario_network.node[1].content_store 	misses[1] 	75291
scalar simple_scenario_network.node[2].core_layer 	interests[2] 	73546
scalar simple_scenario_network.node[2].core_layer 	data[2] 	66693
scalar simple_scenario_network.node[2].content_store 	p_hit[2] 	0.093179778641938
scalar simple_scenario_network.node[2].content_store 	hits[2] 	6853
scalar simple_scenario_network.node[2].content_store 	misses[2] 	66693
scalar simple_scenario_network.node[3].core_layer 	interests[3] 	75291
scalar simple_scenario_network.node[3].core_layer 	repo_load[3] 	75291
scalar simple_scenario_network.node[3].core_layer 	data[3] 	0
scalar simple_scenario_network.node[3].content_store 	p_hit[3] 	0
scalar simple_scenario_network.node[3].content_store 	hits[3] 	0
scalar simple_scenario_network.node[3].content_store 	misses[3] 	75291
scalar simple_scenario_network.node[4].core_layer 	interests[4] 	66693
scalar simple_scenario_network.node[4].core_layer 	repo_load[4] 	66693
scalar simple_scenario_network.node[4].core_layer 	data[4] 	0
scalar simple_scenario_network.node[4].content_store 	p_hit[4] 	0
scalar simple_scenario_network.node[4].content_store 	hits[4] 	0
scalar simple_scenario_network.node[4].content_store 	misses[4] 	66693
scalar simple_scenario_network.client[0] 	hdistance[0] 	2.4466679651632
scalar simple_scenario_network.client[0] 	downloads[0] 	179695
scalar simple_scenario_network.client[0] 	avg_time[0] 	0.001997994735
