version 2
run General-647-20140502-14:08:32-16754
attr D fix0.005
attr F nrr
attr R lru
attr a 1.2
attr configname General
attr csize 1e3
attr ctlg 1e5
attr datetime 20140502-14:08:32
attr experiment General
attr inifile omnetpp.ini
attr iterationvars "$net=three_caches_scenario_3_links, $rep=5, $priceratiovalue=2, $weights=0.333_0.333_0.334, $a=1.2, $ctlg=1e5, $F=nrr, $ttl=1000, $D=fix0.005, $xi=1, $R=lru, $csize=1e3"
attr iterationvars2 "$net=three_caches_scenario_3_links, $rep=5, $priceratiovalue=2, $weights=0.333_0.333_0.334, $a=1.2, $ctlg=1e5, $F=nrr, $ttl=1000, $D=fix0.005, $xi=1, $R=lru, $csize=1e3, $repetition=0"
attr measurement "$net=three_caches_scenario_3_links, $rep=5, $priceratiovalue=2, $weights=0.333_0.333_0.334, $a=1.2, $ctlg=1e5, $F=nrr, $ttl=1000, $D=fix0.005, $xi=1, $R=lru, $csize=1e3"
attr net three_caches_scenario_3_links
attr network networks.${net=three_caches_scenario_3_links}_network
attr priceratiovalue 2
attr processid 16754
attr rep 5
attr repetition 0
attr replication #0
attr resultdir results
attr runnumber 647
attr seedset 5
attr ttl 1000
attr weights 0.333_0.333_0.334
attr xi 1

scalar . 	a 	1.2
scalar . 	csize 	1e3
scalar . 	ctlg 	1e5
scalar . 	priceratiovalue 	2
scalar . 	rep 	5
scalar . 	ttl 	1000
scalar . 	xi 	1
scalar three_caches_scenario_3_links_network.content_distribution 	repo-0 	4
scalar three_caches_scenario_3_links_network.content_distribution 	repo-1 	5
scalar three_caches_scenario_3_links_network.content_distribution 	repo-2 	6
scalar three_caches_scenario_3_links_network.content_distribution 	client-0 	0
scalar three_caches_scenario_3_links_network.content_distribution 	repo-0_card 	33274
scalar three_caches_scenario_3_links_network.content_distribution 	repo-1_card 	33323
scalar three_caches_scenario_3_links_network.content_distribution 	repo-2_card 	33403
scalar three_caches_scenario_3_links_network.statistics 	p_hit 	0.5680706921944
scalar three_caches_scenario_3_links_network.statistics 	interests 	36375
scalar three_caches_scenario_3_links_network.statistics 	data 	10699.285714286
scalar three_caches_scenario_3_links_network.statistics 	hdistance 	0.53964279752962
scalar three_caches_scenario_3_links_network.statistics 	avg_time 	0
scalar three_caches_scenario_3_links_network.statistics 	downloads 	179730
scalar three_caches_scenario_3_links_network.statistics 	total_cost 	33061
scalar three_caches_scenario_3_links_network.statistics 	total_replicas 	100000
scalar three_caches_scenario_3_links_network.statistics 	interests_sent 	179730
scalar three_caches_scenario_3_links_network.node[0].core_layer 	interests[0] 	179730
scalar three_caches_scenario_3_links_network.node[0].core_layer 	data[0] 	39810
scalar three_caches_scenario_3_links_network.node[0].core_layer 	repo_int[0] 	35085
scalar three_caches_scenario_3_links_network.node[0].content_store 	p_hit[0] 	0.77850108496077
scalar three_caches_scenario_3_links_network.node[0].content_store 	hits[0] 	139920
scalar three_caches_scenario_3_links_network.node[0].content_store 	misses[0] 	39810
scalar three_caches_scenario_3_links_network.node[0].content_store 	decision_yes[0] 	199
scalar three_caches_scenario_3_links_network.node[0].content_store 	decision_no[0] 	39611
scalar three_caches_scenario_3_links_network.node[1].core_layer 	interests[1] 	12990
scalar three_caches_scenario_3_links_network.node[1].core_layer 	data[1] 	12990
scalar three_caches_scenario_3_links_network.node[1].content_store 	p_hit[1] 	0
scalar three_caches_scenario_3_links_network.node[1].content_store 	hits[1] 	0
scalar three_caches_scenario_3_links_network.node[1].content_store 	misses[1] 	12990
scalar three_caches_scenario_3_links_network.node[1].content_store 	decision_yes[1] 	0
scalar three_caches_scenario_3_links_network.node[1].content_store 	decision_no[1] 	12990
scalar three_caches_scenario_3_links_network.node[2].core_layer 	interests[2] 	13602
scalar three_caches_scenario_3_links_network.node[2].core_layer 	data[2] 	11129
scalar three_caches_scenario_3_links_network.node[2].content_store 	p_hit[2] 	0.18181149830907
scalar three_caches_scenario_3_links_network.node[2].content_store 	hits[2] 	2473
scalar three_caches_scenario_3_links_network.node[2].content_store 	misses[2] 	11129
scalar three_caches_scenario_3_links_network.node[2].content_store 	decision_yes[2] 	58
scalar three_caches_scenario_3_links_network.node[2].content_store 	decision_no[2] 	11071
scalar three_caches_scenario_3_links_network.node[3].core_layer 	interests[3] 	13218
scalar three_caches_scenario_3_links_network.node[3].core_layer 	data[3] 	10966
scalar three_caches_scenario_3_links_network.node[3].content_store 	p_hit[3] 	0.17037373278862
scalar three_caches_scenario_3_links_network.node[3].content_store 	hits[3] 	2252
scalar three_caches_scenario_3_links_network.node[3].content_store 	misses[3] 	10966
scalar three_caches_scenario_3_links_network.node[3].content_store 	decision_yes[3] 	50
scalar three_caches_scenario_3_links_network.node[3].content_store 	decision_no[3] 	10916
scalar three_caches_scenario_3_links_network.node[4].core_layer 	interests[4] 	12990
scalar three_caches_scenario_3_links_network.node[4].core_layer 	repo_load[4] 	12990
scalar three_caches_scenario_3_links_network.node[4].core_layer 	data[4] 	0
scalar three_caches_scenario_3_links_network.node[4].content_store 	p_hit[4] 	0
scalar three_caches_scenario_3_links_network.node[4].content_store 	hits[4] 	0
scalar three_caches_scenario_3_links_network.node[4].content_store 	misses[4] 	12990
scalar three_caches_scenario_3_links_network.node[4].content_store 	decision_yes[4] 	0
scalar three_caches_scenario_3_links_network.node[4].content_store 	decision_no[4] 	12990
scalar three_caches_scenario_3_links_network.node[5].core_layer 	interests[5] 	11129
scalar three_caches_scenario_3_links_network.node[5].core_layer 	repo_load[5] 	11129
scalar three_caches_scenario_3_links_network.node[5].core_layer 	data[5] 	0
scalar three_caches_scenario_3_links_network.node[5].content_store 	p_hit[5] 	0
scalar three_caches_scenario_3_links_network.node[5].content_store 	hits[5] 	0
scalar three_caches_scenario_3_links_network.node[5].content_store 	misses[5] 	11129
scalar three_caches_scenario_3_links_network.node[5].content_store 	decision_yes[5] 	0
scalar three_caches_scenario_3_links_network.node[5].content_store 	decision_no[5] 	11129
scalar three_caches_scenario_3_links_network.node[6].core_layer 	interests[6] 	10966
scalar three_caches_scenario_3_links_network.node[6].core_layer 	repo_load[6] 	10966
scalar three_caches_scenario_3_links_network.node[6].core_layer 	data[6] 	0
scalar three_caches_scenario_3_links_network.node[6].content_store 	p_hit[6] 	0
scalar three_caches_scenario_3_links_network.node[6].content_store 	hits[6] 	0
scalar three_caches_scenario_3_links_network.node[6].content_store 	misses[6] 	10966
scalar three_caches_scenario_3_links_network.node[6].content_store 	decision_yes[6] 	0
scalar three_caches_scenario_3_links_network.node[6].content_store 	decision_no[6] 	10966
scalar three_caches_scenario_3_links_network.client[0] 	hdistance[0] 	0.53964279752962
scalar three_caches_scenario_3_links_network.client[0] 	downloads[0] 	179730
scalar three_caches_scenario_3_links_network.client[0] 	avg_time[0] 	0
scalar three_caches_scenario_3_links_network.client[0] 	interests_sent[0] 	179730
