version 2
run General-5-20140625-11:03:12-10520
attr D fix0.001
attr F nrr
attr R lru
attr a 1
attr configname General
attr csize 1e3
attr ctlg 1e5
attr datetime 20140625-11:03:12
attr experiment General
attr inifile omnetpp.ini
attr iterationvars "$net=abilene_cost, $rep=1, $priceratiovalue=10, $weights=0.333_0.333_0.334, $lambda=100, $a=1, $ctlg=1e5, $F=nrr, $ttl=1000, $D=fix0.001, $xi=1, $R=lru, $csize=1e3, $pricebits=0, $mytime=1800"
attr iterationvars2 "$net=abilene_cost, $rep=1, $priceratiovalue=10, $weights=0.333_0.333_0.334, $lambda=100, $a=1, $ctlg=1e5, $F=nrr, $ttl=1000, $D=fix0.001, $xi=1, $R=lru, $csize=1e3, $pricebits=0, $mytime=1800, $repetition=0"
attr lambda 100
attr measurement "$net=abilene_cost, $rep=1, $priceratiovalue=10, $weights=0.333_0.333_0.334, $lambda=100, $a=1, $ctlg=1e5, $F=nrr, $ttl=1000, $D=fix0.001, $xi=1, $R=lru, $csize=1e3, $pricebits=0, $mytime=1800"
attr mytime 1800
attr net abilene_cost
attr network networks.${net=abilene_cost}_network
attr pricebits 0
attr priceratiovalue 10
attr processid 10520
attr rep 1
attr repetition 0
attr replication #0
attr resultdir results
attr runnumber 5
attr seedset 1
attr ttl 1000
attr weights 0.333_0.333_0.334
attr xi 1

scalar . 	a 	1
scalar . 	csize 	1e3
scalar . 	ctlg 	1e5
scalar . 	lambda 	100
scalar . 	mytime 	1800
scalar . 	pricebits 	0
scalar . 	priceratiovalue 	10
scalar . 	rep 	1
scalar . 	ttl 	1000
scalar . 	xi 	1
scalar abilene_cost_network.content_distribution 	repo-0 	11
scalar abilene_cost_network.content_distribution 	repo-1 	12
scalar abilene_cost_network.content_distribution 	repo-2 	13
scalar abilene_cost_network.content_distribution 	client-0 	5
scalar abilene_cost_network.content_distribution 	client-1 	0
scalar abilene_cost_network.content_distribution 	client-2 	9
scalar abilene_cost_network.content_distribution 	repo-0_card 	33396
scalar abilene_cost_network.content_distribution 	repo-1_card 	33039
scalar abilene_cost_network.content_distribution 	repo-2_card 	33565
scalar abilene_cost_network.statistics 	repo_popularity[0] 	0.28686251265602
scalar abilene_cost_network.statistics 	repo_popularity[1] 	0.2886063426465
scalar abilene_cost_network.statistics 	repo_popularity[2] 	0.42453114469748
scalar abilene_cost_network.statistics 	stabilization_time 	4451.5
scalar abilene_cost_network.node[1].face$o[4].channel 	price[1] 	0
scalar abilene_cost_network.node[1].face$o[4].channel 	represented_price[1] 	0
scalar abilene_cost_network.node[7].face$o[4].channel 	price[7] 	0
scalar abilene_cost_network.node[7].face$o[4].channel 	represented_price[7] 	0
scalar abilene_cost_network.node[10].face$o[4].channel 	price[10] 	0
scalar abilene_cost_network.node[10].face$o[4].channel 	represented_price[10] 	0
scalar abilene_cost_network.node[11].face$o[1].channel 	price[11] 	0
scalar abilene_cost_network.node[11].face$o[1].channel 	represented_price[11] 	0
scalar abilene_cost_network.node[12].face$o[1].channel 	price[12] 	1
scalar abilene_cost_network.node[12].face$o[1].channel 	represented_price[12] 	1
scalar abilene_cost_network.node[13].face$o[1].channel 	price[13] 	10
scalar abilene_cost_network.node[13].face$o[1].channel 	represented_price[13] 	10
scalar abilene_cost_network.statistics 	p_hit 	0.18970841537012
scalar abilene_cost_network.statistics 	interests 	111303.14285714
scalar abilene_cost_network.statistics 	data 	72676.5
scalar abilene_cost_network.statistics 	hdistance 	2.3356879138746
scalar abilene_cost_network.statistics 	avg_time 	0.009392198106
scalar abilene_cost_network.statistics 	downloads 	540678
scalar abilene_cost_network.statistics 	total_cost 	917108
scalar abilene_cost_network.statistics 	total_replicas 	100000
scalar abilene_cost_network.statistics 	inner_hit 	0.54674871180259
scalar abilene_cost_network.statistics 	interests_sent 	540779
scalar abilene_cost_network.node[0].core_layer 	interests[0] 	184107
scalar abilene_cost_network.node[0].core_layer 	data[0] 	110619
scalar abilene_cost_network.node[0].core_layer 	repo_int[0] 	245063
scalar abilene_cost_network.node[0].content_store 	p_hit[0] 	0.39893105639655
scalar abilene_cost_network.node[0].content_store 	hits[0] 	73446
scalar abilene_cost_network.node[0].content_store 	misses[0] 	110661
scalar abilene_cost_network.node[0].content_store 	decision_yes[0] 	121
scalar abilene_cost_network.node[0].content_store 	decision_no[0] 	110498
scalar abilene_cost_network.node[0].content_store 	decision_ratio[0] 	0.0010938446379013
scalar abilene_cost_network.node[1].core_layer 	interests[1] 	165548
scalar abilene_cost_network.node[1].core_layer 	data[1] 	150973
scalar abilene_cost_network.node[1].content_store 	p_hit[1] 	0.08804093072704
scalar abilene_cost_network.node[1].content_store 	hits[1] 	14575
scalar abilene_cost_network.node[1].content_store 	misses[1] 	150973
scalar abilene_cost_network.node[1].content_store 	decision_yes[1] 	151
scalar abilene_cost_network.node[1].content_store 	decision_no[1] 	150822
scalar abilene_cost_network.node[1].content_store 	decision_ratio[1] 	0.001000178839925
scalar abilene_cost_network.node[2].core_layer 	interests[2] 	106510
scalar abilene_cost_network.node[2].core_layer 	data[2] 	96625
scalar abilene_cost_network.node[2].content_store 	p_hit[2] 	0.092817575814478
scalar abilene_cost_network.node[2].content_store 	hits[2] 	9886
scalar abilene_cost_network.node[2].content_store 	misses[2] 	96624
scalar abilene_cost_network.node[2].content_store 	decision_yes[2] 	94
scalar abilene_cost_network.node[2].content_store 	decision_no[2] 	96531
scalar abilene_cost_network.node[2].content_store 	decision_ratio[2] 	0.00097283311772316
scalar abilene_cost_network.node[3].core_layer 	interests[3] 	101623
scalar abilene_cost_network.node[3].core_layer 	data[3] 	92895
scalar abilene_cost_network.node[3].content_store 	p_hit[3] 	0.085895909390591
scalar abilene_cost_network.node[3].content_store 	hits[3] 	8729
scalar abilene_cost_network.node[3].content_store 	misses[3] 	92894
scalar abilene_cost_network.node[3].content_store 	decision_yes[3] 	100
scalar abilene_cost_network.node[3].content_store 	decision_no[3] 	92795
scalar abilene_cost_network.node[3].content_store 	decision_ratio[3] 	0.0010764842025943
scalar abilene_cost_network.node[4].core_layer 	interests[4] 	74900
scalar abilene_cost_network.node[4].core_layer 	data[4] 	68225
scalar abilene_cost_network.node[4].content_store 	p_hit[4] 	0.08913217623498
scalar abilene_cost_network.node[4].content_store 	hits[4] 	6676
scalar abilene_cost_network.node[4].content_store 	misses[4] 	68224
scalar abilene_cost_network.node[4].content_store 	decision_yes[4] 	62
scalar abilene_cost_network.node[4].content_store 	decision_no[4] 	68163
scalar abilene_cost_network.node[4].content_store 	decision_ratio[4] 	0.00090875778673507
scalar abilene_cost_network.node[5].core_layer 	interests[5] 	181051
scalar abilene_cost_network.node[5].core_layer 	data[5] 	109551
scalar abilene_cost_network.node[5].content_store 	p_hit[5] 	0.39478931350835
scalar abilene_cost_network.node[5].content_store 	hits[5] 	71477
scalar abilene_cost_network.node[5].content_store 	misses[5] 	109574
scalar abilene_cost_network.node[5].content_store 	decision_yes[5] 	121
scalar abilene_cost_network.node[5].content_store 	decision_no[5] 	109430
scalar abilene_cost_network.node[5].content_store 	decision_ratio[5] 	0.0011045084024792
scalar abilene_cost_network.node[6].core_layer 	interests[6] 	38378
scalar abilene_cost_network.node[6].core_layer 	data[6] 	33634
scalar abilene_cost_network.node[6].content_store 	p_hit[6] 	0.12361248632029
scalar abilene_cost_network.node[6].content_store 	hits[6] 	4744
scalar abilene_cost_network.node[6].content_store 	misses[6] 	33634
scalar abilene_cost_network.node[6].content_store 	decision_yes[6] 	33
scalar abilene_cost_network.node[6].content_store 	decision_no[6] 	33601
scalar abilene_cost_network.node[6].content_store 	decision_ratio[6] 	0.00098115002675864
scalar abilene_cost_network.node[7].core_layer 	interests[7] 	90483
scalar abilene_cost_network.node[7].core_layer 	data[7] 	83318
scalar abilene_cost_network.node[7].content_store 	p_hit[7] 	0.079186145463789
scalar abilene_cost_network.node[7].content_store 	hits[7] 	7165
scalar abilene_cost_network.node[7].content_store 	misses[7] 	83318
scalar abilene_cost_network.node[7].content_store 	decision_yes[7] 	78
scalar abilene_cost_network.node[7].content_store 	decision_no[7] 	83240
scalar abilene_cost_network.node[7].content_store 	decision_ratio[7] 	0.00093617225569505
scalar abilene_cost_network.node[8].core_layer 	interests[8] 	46455
scalar abilene_cost_network.node[8].core_layer 	data[8] 	37490
scalar abilene_cost_network.node[8].content_store 	p_hit[8] 	0.19298245614035
scalar abilene_cost_network.node[8].content_store 	hits[8] 	8965
scalar abilene_cost_network.node[8].content_store 	misses[8] 	37490
scalar abilene_cost_network.node[8].content_store 	decision_yes[8] 	33
scalar abilene_cost_network.node[8].content_store 	decision_no[8] 	37457
scalar abilene_cost_network.node[8].content_store 	decision_ratio[8] 	0.00088023472926114
scalar abilene_cost_network.node[9].core_layer 	interests[9] 	185558
scalar abilene_cost_network.node[9].core_layer 	data[9] 	110467
scalar abilene_cost_network.node[9].content_store 	p_hit[9] 	0.40448269543755
scalar abilene_cost_network.node[9].content_store 	hits[9] 	75055
scalar abilene_cost_network.node[9].content_store 	misses[9] 	110503
scalar abilene_cost_network.node[9].content_store 	decision_yes[9] 	115
scalar abilene_cost_network.node[9].content_store 	decision_no[9] 	110352
scalar abilene_cost_network.node[9].content_store 	decision_ratio[9] 	0.0010410348791947
scalar abilene_cost_network.node[10].core_layer 	interests[10] 	138568
scalar abilene_cost_network.node[10].core_layer 	data[10] 	123674
scalar abilene_cost_network.node[10].content_store 	p_hit[10] 	0.10748513365279
scalar abilene_cost_network.node[10].content_store 	hits[10] 	14894
scalar abilene_cost_network.node[10].content_store 	misses[10] 	123674
scalar abilene_cost_network.node[10].content_store 	decision_yes[10] 	129
scalar abilene_cost_network.node[10].content_store 	decision_no[10] 	123545
scalar abilene_cost_network.node[10].content_store 	decision_ratio[10] 	0.001043064831735
scalar abilene_cost_network.node[11].core_layer 	interests[11] 	84522
scalar abilene_cost_network.node[11].core_layer 	repo_load[11] 	84522
scalar abilene_cost_network.node[11].core_layer 	data[11] 	0
scalar abilene_cost_network.node[11].content_store 	p_hit[11] 	0
scalar abilene_cost_network.node[11].content_store 	hits[11] 	0
scalar abilene_cost_network.node[11].content_store 	misses[11] 	84522
scalar abilene_cost_network.node[11].content_store 	decision_yes[11] 	0
scalar abilene_cost_network.node[11].content_store 	decision_no[11] 	84522
scalar abilene_cost_network.node[11].content_store 	decision_ratio[11] 	0
scalar abilene_cost_network.node[12].core_layer 	interests[12] 	76478
scalar abilene_cost_network.node[12].core_layer 	repo_load[12] 	76478
scalar abilene_cost_network.node[12].core_layer 	data[12] 	0
scalar abilene_cost_network.node[12].content_store 	p_hit[12] 	0
scalar abilene_cost_network.node[12].content_store 	hits[12] 	0
scalar abilene_cost_network.node[12].content_store 	misses[12] 	76478
scalar abilene_cost_network.node[12].content_store 	decision_yes[12] 	0
scalar abilene_cost_network.node[12].content_store 	decision_no[12] 	76478
scalar abilene_cost_network.node[12].content_store 	decision_ratio[12] 	0
scalar abilene_cost_network.node[13].core_layer 	interests[13] 	84063
scalar abilene_cost_network.node[13].core_layer 	repo_load[13] 	84063
scalar abilene_cost_network.node[13].core_layer 	data[13] 	0
scalar abilene_cost_network.node[13].content_store 	p_hit[13] 	0
scalar abilene_cost_network.node[13].content_store 	hits[13] 	0
scalar abilene_cost_network.node[13].content_store 	misses[13] 	84063
scalar abilene_cost_network.node[13].content_store 	decision_yes[13] 	0
scalar abilene_cost_network.node[13].content_store 	decision_no[13] 	84063
scalar abilene_cost_network.node[13].content_store 	decision_ratio[13] 	0
scalar abilene_cost_network.client[0] 	hdistance[0] 	2.1005019545132
scalar abilene_cost_network.client[0] 	downloads[0] 	180096
scalar abilene_cost_network.client[0] 	avg_time[0] 	0.008946914013
scalar abilene_cost_network.client[0] 	interests_sent[0] 	180138
scalar abilene_cost_network.client[5] 	hdistance[5] 	2.9630984005602
scalar abilene_cost_network.client[5] 	downloads[5] 	179938
scalar abilene_cost_network.client[5] 	avg_time[5] 	0.01106225716
scalar abilene_cost_network.client[5] 	interests_sent[5] 	179961
scalar abilene_cost_network.client[9] 	hdistance[9] 	1.9434633865503
scalar abilene_cost_network.client[9] 	downloads[9] 	180644
scalar abilene_cost_network.client[9] 	avg_time[9] 	0.008167423145
scalar abilene_cost_network.client[9] 	interests_sent[9] 	180680
