version 2
run General-0-20140624-14:13:42-28320
attr D lce
attr F nrr
attr R lru
attr a 1
attr configname General
attr csize 1e3
attr ctlg 1e2
attr datetime 20140624-14:13:42
attr experiment General
attr inifile omnetpp.ini
attr iterationvars "$net=geant_cost, $rep=1, $priceratiovalue=10, $weights=0.333_0.333_0.334, $lambda=100, $a=1, $ctlg=1e2, $F=nrr, $ttl=1000, $D=lce, $xi=1, $R=lru, $csize=1e3, $pricebits=0, $mytime=1800"
attr iterationvars2 "$net=geant_cost, $rep=1, $priceratiovalue=10, $weights=0.333_0.333_0.334, $lambda=100, $a=1, $ctlg=1e2, $F=nrr, $ttl=1000, $D=lce, $xi=1, $R=lru, $csize=1e3, $pricebits=0, $mytime=1800, $repetition=0"
attr lambda 100
attr measurement "$net=geant_cost, $rep=1, $priceratiovalue=10, $weights=0.333_0.333_0.334, $lambda=100, $a=1, $ctlg=1e2, $F=nrr, $ttl=1000, $D=lce, $xi=1, $R=lru, $csize=1e3, $pricebits=0, $mytime=1800"
attr mytime 1800
attr net geant_cost
attr network networks.${net=geant_cost}_network
attr pricebits 0
attr priceratiovalue 10
attr processid 28320
attr rep 1
attr repetition 0
attr replication #0
attr resultdir results
attr runnumber 0
attr seedset 1
attr ttl 1000
attr weights 0.333_0.333_0.334
attr xi 1

scalar . 	a 	1
scalar . 	csize 	1e3
scalar . 	ctlg 	1e2
scalar . 	lambda 	100
scalar . 	mytime 	1800
scalar . 	pricebits 	0
scalar . 	priceratiovalue 	10
scalar . 	rep 	1
scalar . 	ttl 	1000
scalar . 	xi 	1
scalar geant_cost_network.content_distribution 	repo-0 	22
scalar geant_cost_network.content_distribution 	repo-1 	23
scalar geant_cost_network.content_distribution 	repo-2 	24
scalar geant_cost_network.content_distribution 	client-0 	20
scalar geant_cost_network.content_distribution 	client-1 	10
scalar geant_cost_network.content_distribution 	client-2 	12
scalar geant_cost_network.content_distribution 	client-3 	9
scalar geant_cost_network.content_distribution 	client-4 	5
scalar geant_cost_network.content_distribution 	repo-0_card 	35
scalar geant_cost_network.content_distribution 	repo-1_card 	37
scalar geant_cost_network.content_distribution 	repo-2_card 	28
scalar geant_cost_network.statistics 	repo_popularity[0] 	0.22656622368958
scalar geant_cost_network.statistics 	repo_popularity[1] 	0.24327997372272
scalar geant_cost_network.statistics 	repo_popularity[2] 	0.5301538025877
scalar geant_cost_network.statistics 	stabilization_time 	36120
scalar geant_cost_network.node[7].face$o[4].channel 	price[7] 	0
scalar geant_cost_network.node[7].face$o[4].channel 	represented_price[7] 	0
scalar geant_cost_network.node[8].face$o[3].channel 	price[8] 	0
scalar geant_cost_network.node[8].face$o[3].channel 	represented_price[8] 	0
scalar geant_cost_network.node[21].face$o[5].channel 	price[21] 	0
scalar geant_cost_network.node[21].face$o[5].channel 	represented_price[21] 	0
scalar geant_cost_network.node[22].face$o[1].channel 	price[22] 	0
scalar geant_cost_network.node[22].face$o[1].channel 	represented_price[22] 	0
scalar geant_cost_network.node[23].face$o[1].channel 	price[23] 	1
scalar geant_cost_network.node[23].face$o[1].channel 	represented_price[23] 	1
scalar geant_cost_network.node[24].face$o[1].channel 	price[24] 	10
scalar geant_cost_network.node[24].face$o[1].channel 	represented_price[24] 	10
scalar geant_cost_network.statistics 	p_hit 	0.77656062606235
scalar geant_cost_network.statistics 	interests 	46283.92
scalar geant_cost_network.statistics 	data 	10254.88
scalar geant_cost_network.statistics 	hdistance 	0.28600675096589
scalar geant_cost_network.statistics 	avg_time 	0.002078199185
scalar geant_cost_network.statistics 	downloads 	899548
scalar geant_cost_network.statistics 	total_cost 	9
scalar geant_cost_network.statistics 	total_replicas 	100
scalar geant_cost_network.statistics 	inner_hit 	0.99998777163642
scalar geant_cost_network.statistics 	interests_sent 	900726
scalar geant_cost_network.node[0].core_layer 	interests[0] 	0
scalar geant_cost_network.node[0].core_layer 	data[0] 	0
scalar geant_cost_network.node[0].core_layer 	repo_int[0] 	11
scalar geant_cost_network.node[0].content_store 	p_hit[0] 	-nan
scalar geant_cost_network.node[0].content_store 	hits[0] 	0
scalar geant_cost_network.node[0].content_store 	misses[0] 	0
scalar geant_cost_network.node[0].content_store 	decision_yes[0] 	0
scalar geant_cost_network.node[0].content_store 	decision_no[0] 	0
scalar geant_cost_network.node[0].content_store 	decision_ratio[0] 	0
scalar geant_cost_network.node[1].core_layer 	interests[1] 	0
scalar geant_cost_network.node[1].core_layer 	data[1] 	0
scalar geant_cost_network.node[1].content_store 	p_hit[1] 	-nan
scalar geant_cost_network.node[1].content_store 	hits[1] 	0
scalar geant_cost_network.node[1].content_store 	misses[1] 	0
scalar geant_cost_network.node[1].content_store 	decision_yes[1] 	0
scalar geant_cost_network.node[1].content_store 	decision_no[1] 	0
scalar geant_cost_network.node[1].content_store 	decision_ratio[1] 	0
scalar geant_cost_network.node[2].core_layer 	interests[2] 	0
scalar geant_cost_network.node[2].core_layer 	data[2] 	0
scalar geant_cost_network.node[2].content_store 	p_hit[2] 	-nan
scalar geant_cost_network.node[2].content_store 	hits[2] 	0
scalar geant_cost_network.node[2].content_store 	misses[2] 	0
scalar geant_cost_network.node[2].content_store 	decision_yes[2] 	0
scalar geant_cost_network.node[2].content_store 	decision_no[2] 	0
scalar geant_cost_network.node[2].content_store 	decision_ratio[2] 	0
scalar geant_cost_network.node[3].core_layer 	interests[3] 	35070
scalar geant_cost_network.node[3].core_layer 	data[3] 	559
scalar geant_cost_network.node[3].content_store 	p_hit[3] 	0.9841485892528
scalar geant_cost_network.node[3].content_store 	hits[3] 	34706
scalar geant_cost_network.node[3].content_store 	misses[3] 	559
scalar geant_cost_network.node[3].content_store 	decision_yes[3] 	559
scalar geant_cost_network.node[3].content_store 	decision_no[3] 	0
scalar geant_cost_network.node[3].content_store 	decision_ratio[3] 	1
scalar geant_cost_network.node[4].core_layer 	interests[4] 	8817
scalar geant_cost_network.node[4].core_layer 	data[4] 	21
scalar geant_cost_network.node[4].content_store 	p_hit[4] 	0.99761823749575
scalar geant_cost_network.node[4].content_store 	hits[4] 	8796
scalar geant_cost_network.node[4].content_store 	misses[4] 	21
scalar geant_cost_network.node[4].content_store 	decision_yes[4] 	21
scalar geant_cost_network.node[4].content_store 	decision_no[4] 	0
scalar geant_cost_network.node[4].content_store 	decision_ratio[4] 	1
scalar geant_cost_network.node[5].core_layer 	interests[5] 	180434
scalar geant_cost_network.node[5].core_layer 	data[5] 	38125
scalar geant_cost_network.node[5].content_store 	p_hit[5] 	0.78766751277475
scalar geant_cost_network.node[5].content_store 	hits[5] 	142122
scalar geant_cost_network.node[5].content_store 	misses[5] 	38312
scalar geant_cost_network.node[5].content_store 	decision_yes[5] 	38125
scalar geant_cost_network.node[5].content_store 	decision_no[5] 	0
scalar geant_cost_network.node[5].content_store 	decision_ratio[5] 	1
scalar geant_cost_network.node[6].core_layer 	interests[6] 	9890
scalar geant_cost_network.node[6].core_layer 	data[6] 	0
scalar geant_cost_network.node[6].content_store 	p_hit[6] 	1
scalar geant_cost_network.node[6].content_store 	hits[6] 	9890
scalar geant_cost_network.node[6].content_store 	misses[6] 	0
scalar geant_cost_network.node[6].content_store 	decision_yes[6] 	0
scalar geant_cost_network.node[6].content_store 	decision_no[6] 	0
scalar geant_cost_network.node[6].content_store 	decision_ratio[6] 	0
scalar geant_cost_network.node[7].core_layer 	interests[7] 	226
scalar geant_cost_network.node[7].core_layer 	data[7] 	4
scalar geant_cost_network.node[7].content_store 	p_hit[7] 	0.98230088495575
scalar geant_cost_network.node[7].content_store 	hits[7] 	222
scalar geant_cost_network.node[7].content_store 	misses[7] 	4
scalar geant_cost_network.node[7].content_store 	decision_yes[7] 	4
scalar geant_cost_network.node[7].content_store 	decision_no[7] 	0
scalar geant_cost_network.node[7].content_store 	decision_ratio[7] 	1
scalar geant_cost_network.node[8].core_layer 	interests[8] 	24936
scalar geant_cost_network.node[8].core_layer 	data[8] 	225
scalar geant_cost_network.node[8].content_store 	p_hit[8] 	0.99097690086622
scalar geant_cost_network.node[8].content_store 	hits[8] 	24711
scalar geant_cost_network.node[8].content_store 	misses[8] 	225
scalar geant_cost_network.node[8].content_store 	decision_yes[8] 	225
scalar geant_cost_network.node[8].content_store 	decision_no[8] 	0
scalar geant_cost_network.node[8].content_store 	decision_ratio[8] 	1
scalar geant_cost_network.node[9].core_layer 	interests[9] 	227398
scalar geant_cost_network.node[9].core_layer 	data[9] 	68694
scalar geant_cost_network.node[9].content_store 	p_hit[9] 	0.6952593072305
scalar geant_cost_network.node[9].content_store 	hits[9] 	158889
scalar geant_cost_network.node[9].content_store 	misses[9] 	69643
scalar geant_cost_network.node[9].content_store 	decision_yes[9] 	68678
scalar geant_cost_network.node[9].content_store 	decision_no[9] 	0
scalar geant_cost_network.node[9].content_store 	decision_ratio[9] 	1
scalar geant_cost_network.node[10].core_layer 	interests[10] 	189347
scalar geant_cost_network.node[10].core_layer 	data[10] 	38299
scalar geant_cost_network.node[10].content_store 	p_hit[10] 	0.79711597819836
scalar geant_cost_network.node[10].content_store 	hits[10] 	151075
scalar geant_cost_network.node[10].content_store 	misses[10] 	38452
scalar geant_cost_network.node[10].content_store 	decision_yes[10] 	38299
scalar geant_cost_network.node[10].content_store 	decision_no[10] 	0
scalar geant_cost_network.node[10].content_store 	decision_ratio[10] 	1
scalar geant_cost_network.node[11].core_layer 	interests[11] 	0
scalar geant_cost_network.node[11].core_layer 	data[11] 	0
scalar geant_cost_network.node[11].content_store 	p_hit[11] 	-nan
scalar geant_cost_network.node[11].content_store 	hits[11] 	0
scalar geant_cost_network.node[11].content_store 	misses[11] 	0
scalar geant_cost_network.node[11].content_store 	decision_yes[11] 	0
scalar geant_cost_network.node[11].content_store 	decision_no[11] 	0
scalar geant_cost_network.node[11].content_store 	decision_ratio[11] 	0
scalar geant_cost_network.node[12].core_layer 	interests[12] 	215032
scalar geant_cost_network.node[12].core_layer 	data[12] 	58629
scalar geant_cost_network.node[12].content_store 	p_hit[12] 	0.72207135064875
scalar geant_cost_network.node[12].content_store 	hits[12] 	155545
scalar geant_cost_network.node[12].content_store 	misses[12] 	59870
scalar geant_cost_network.node[12].content_store 	decision_yes[12] 	58627
scalar geant_cost_network.node[12].content_store 	decision_no[12] 	0
scalar geant_cost_network.node[12].content_store 	decision_ratio[12] 	1
scalar geant_cost_network.node[13].core_layer 	interests[13] 	26184
scalar geant_cost_network.node[13].core_layer 	data[13] 	24
scalar geant_cost_network.node[13].content_store 	p_hit[13] 	0.99908340971586
scalar geant_cost_network.node[13].content_store 	hits[13] 	26160
scalar geant_cost_network.node[13].content_store 	misses[13] 	24
scalar geant_cost_network.node[13].content_store 	decision_yes[13] 	24
scalar geant_cost_network.node[13].content_store 	decision_no[13] 	0
scalar geant_cost_network.node[13].content_store 	decision_ratio[13] 	1
scalar geant_cost_network.node[14].core_layer 	interests[14] 	21883
scalar geant_cost_network.node[14].core_layer 	data[14] 	13
scalar geant_cost_network.node[14].content_store 	p_hit[14] 	0.99940593154503
scalar geant_cost_network.node[14].content_store 	hits[14] 	21870
scalar geant_cost_network.node[14].content_store 	misses[14] 	13
scalar geant_cost_network.node[14].content_store 	decision_yes[14] 	13
scalar geant_cost_network.node[14].content_store 	decision_no[14] 	0
scalar geant_cost_network.node[14].content_store 	decision_ratio[14] 	1
scalar geant_cost_network.node[15].core_layer 	interests[15] 	0
scalar geant_cost_network.node[15].core_layer 	data[15] 	0
scalar geant_cost_network.node[15].content_store 	p_hit[15] 	-nan
scalar geant_cost_network.node[15].content_store 	hits[15] 	0
scalar geant_cost_network.node[15].content_store 	misses[15] 	0
scalar geant_cost_network.node[15].content_store 	decision_yes[15] 	0
scalar geant_cost_network.node[15].content_store 	decision_no[15] 	0
scalar geant_cost_network.node[15].content_store 	decision_ratio[15] 	0
scalar geant_cost_network.node[16].core_layer 	interests[16] 	0
scalar geant_cost_network.node[16].core_layer 	data[16] 	0
scalar geant_cost_network.node[16].content_store 	p_hit[16] 	-nan
scalar geant_cost_network.node[16].content_store 	hits[16] 	0
scalar geant_cost_network.node[16].content_store 	misses[16] 	0
scalar geant_cost_network.node[16].content_store 	decision_yes[16] 	0
scalar geant_cost_network.node[16].content_store 	decision_no[16] 	0
scalar geant_cost_network.node[16].content_store 	decision_ratio[16] 	0
scalar geant_cost_network.node[17].core_layer 	interests[17] 	0
scalar geant_cost_network.node[17].core_layer 	data[17] 	0
scalar geant_cost_network.node[17].content_store 	p_hit[17] 	-nan
scalar geant_cost_network.node[17].content_store 	hits[17] 	0
scalar geant_cost_network.node[17].content_store 	misses[17] 	0
scalar geant_cost_network.node[17].content_store 	decision_yes[17] 	0
scalar geant_cost_network.node[17].content_store 	decision_no[17] 	0
scalar geant_cost_network.node[17].content_store 	decision_ratio[17] 	0
scalar geant_cost_network.node[18].core_layer 	interests[18] 	27871
scalar geant_cost_network.node[18].core_layer 	data[18] 	13485
scalar geant_cost_network.node[18].content_store 	p_hit[18] 	0.5161637544401
scalar geant_cost_network.node[18].content_store 	hits[18] 	14386
scalar geant_cost_network.node[18].content_store 	misses[18] 	13485
scalar geant_cost_network.node[18].content_store 	decision_yes[18] 	13485
scalar geant_cost_network.node[18].content_store 	decision_no[18] 	0
scalar geant_cost_network.node[18].content_store 	decision_ratio[18] 	1
scalar geant_cost_network.node[19].core_layer 	interests[19] 	0
scalar geant_cost_network.node[19].core_layer 	data[19] 	0
scalar geant_cost_network.node[19].content_store 	p_hit[19] 	-nan
scalar geant_cost_network.node[19].content_store 	hits[19] 	0
scalar geant_cost_network.node[19].content_store 	misses[19] 	0
scalar geant_cost_network.node[19].content_store 	decision_yes[19] 	0
scalar geant_cost_network.node[19].content_store 	decision_no[19] 	0
scalar geant_cost_network.node[19].content_store 	decision_ratio[19] 	0
scalar geant_cost_network.node[20].core_layer 	interests[20] 	179565
scalar geant_cost_network.node[20].core_layer 	data[20] 	38294
scalar geant_cost_network.node[20].content_store 	p_hit[20] 	0.78645615793724
scalar geant_cost_network.node[20].content_store 	hits[20] 	141220
scalar geant_cost_network.node[20].content_store 	misses[20] 	38345
scalar geant_cost_network.node[20].content_store 	decision_yes[20] 	38294
scalar geant_cost_network.node[20].content_store 	decision_no[20] 	0
scalar geant_cost_network.node[20].content_store 	decision_ratio[20] 	1
scalar geant_cost_network.node[21].core_layer 	interests[21] 	10434
scalar geant_cost_network.node[21].core_layer 	data[21] 	0
scalar geant_cost_network.node[21].content_store 	p_hit[21] 	1
scalar geant_cost_network.node[21].content_store 	hits[21] 	10434
scalar geant_cost_network.node[21].content_store 	misses[21] 	0
scalar geant_cost_network.node[21].content_store 	decision_yes[21] 	0
scalar geant_cost_network.node[21].content_store 	decision_no[21] 	0
scalar geant_cost_network.node[21].content_store 	decision_ratio[21] 	0
scalar geant_cost_network.node[22].core_layer 	interests[22] 	2
scalar geant_cost_network.node[22].core_layer 	repo_load[22] 	2
scalar geant_cost_network.node[22].core_layer 	data[22] 	0
scalar geant_cost_network.node[22].content_store 	p_hit[22] 	0
scalar geant_cost_network.node[22].content_store 	hits[22] 	0
scalar geant_cost_network.node[22].content_store 	misses[22] 	2
scalar geant_cost_network.node[22].content_store 	decision_yes[22] 	0
scalar geant_cost_network.node[22].content_store 	decision_no[22] 	2
scalar geant_cost_network.node[22].content_store 	decision_ratio[22] 	0
scalar geant_cost_network.node[23].core_layer 	interests[23] 	9
scalar geant_cost_network.node[23].core_layer 	repo_load[23] 	9
scalar geant_cost_network.node[23].core_layer 	data[23] 	0
scalar geant_cost_network.node[23].content_store 	p_hit[23] 	0
scalar geant_cost_network.node[23].content_store 	hits[23] 	0
scalar geant_cost_network.node[23].content_store 	misses[23] 	9
scalar geant_cost_network.node[23].content_store 	decision_yes[23] 	0
scalar geant_cost_network.node[23].content_store 	decision_no[23] 	9
scalar geant_cost_network.node[23].content_store 	decision_ratio[23] 	0
scalar geant_cost_network.node[24].core_layer 	interests[24] 	0
scalar geant_cost_network.node[24].core_layer 	data[24] 	0
scalar geant_cost_network.node[24].content_store 	p_hit[24] 	-nan
scalar geant_cost_network.node[24].content_store 	hits[24] 	0
scalar geant_cost_network.node[24].content_store 	misses[24] 	0
scalar geant_cost_network.node[24].content_store 	decision_yes[24] 	0
scalar geant_cost_network.node[24].content_store 	decision_no[24] 	0
scalar geant_cost_network.node[24].content_store 	decision_ratio[24] 	0
scalar geant_cost_network.client[5] 	hdistance[5] 	0.21175804472964
scalar geant_cost_network.client[5] 	downloads[5] 	180149
scalar geant_cost_network.client[5] 	avg_time[5] 	0.001596492919
scalar geant_cost_network.client[5] 	interests_sent[5] 	180336
scalar geant_cost_network.client[9] 	hdistance[9] 	0.28547549632097
scalar geant_cost_network.client[9] 	downloads[9] 	180075
scalar geant_cost_network.client[9] 	avg_time[9] 	0.001633970243
scalar geant_cost_network.client[9] 	interests_sent[9] 	180221
scalar geant_cost_network.client[10] 	hdistance[10] 	0.41065542737517
scalar geant_cost_network.client[10] 	downloads[10] 	179608
scalar geant_cost_network.client[10] 	avg_time[10] 	0.001921935996
scalar geant_cost_network.client[10] 	interests_sent[10] 	179760
scalar geant_cost_network.client[12] 	hdistance[12] 	0.2335767638539
scalar geant_cost_network.client[12] 	downloads[12] 	180202
scalar geant_cost_network.client[12] 	avg_time[12] 	0.004558896915
scalar geant_cost_network.client[12] 	interests_sent[12] 	180844
scalar geant_cost_network.client[20] 	hdistance[20] 	0.28856802254978
scalar geant_cost_network.client[20] 	downloads[20] 	179514
scalar geant_cost_network.client[20] 	avg_time[20] 	0.000679699855
scalar geant_cost_network.client[20] 	interests_sent[20] 	179565
