version 2
run General-297-20140510-15:51:48-15399
attr D costprobtailsmart0.01
attr F nrr
attr R lru
attr a 1.2
attr configname General
attr csize 1e3
attr ctlg 1e5
attr datetime 20140510-15:51:48
attr experiment General
attr inifile omnetpp.ini
attr iterationvars "$net=one_cache_scenario_3_links, $rep=4, $priceratiovalue=5, $weights=0.333_0.333_0.334, $a=1.2, $ctlg=1e5, $F=nrr, $ttl=1000, $D=costprobtailsmart0.01, $xi=0.50, $R=lru, $csize=1e3"
attr iterationvars2 "$net=one_cache_scenario_3_links, $rep=4, $priceratiovalue=5, $weights=0.333_0.333_0.334, $a=1.2, $ctlg=1e5, $F=nrr, $ttl=1000, $D=costprobtailsmart0.01, $xi=0.50, $R=lru, $csize=1e3, $repetition=0"
attr measurement "$net=one_cache_scenario_3_links, $rep=4, $priceratiovalue=5, $weights=0.333_0.333_0.334, $a=1.2, $ctlg=1e5, $F=nrr, $ttl=1000, $D=costprobtailsmart0.01, $xi=0.50, $R=lru, $csize=1e3"
attr net one_cache_scenario_3_links
attr network networks.${net=one_cache_scenario_3_links}_network
attr priceratiovalue 5
attr processid 15399
attr rep 4
attr repetition 0
attr replication #0
attr resultdir results
attr runnumber 297
attr seedset 4
attr ttl 1000
attr weights 0.333_0.333_0.334
attr xi 0.50

scalar . 	a 	1.2
scalar . 	csize 	1e3
scalar . 	ctlg 	1e5
scalar . 	priceratiovalue 	5
scalar . 	rep 	4
scalar . 	ttl 	1000
scalar . 	xi 	0.50
scalar one_cache_scenario_3_links_network.content_distribution 	repo-0 	4
scalar one_cache_scenario_3_links_network.content_distribution 	repo-1 	5
scalar one_cache_scenario_3_links_network.content_distribution 	repo-2 	6
scalar one_cache_scenario_3_links_network.content_distribution 	client-0 	0
scalar one_cache_scenario_3_links_network.content_distribution 	repo-0_card 	33272
scalar one_cache_scenario_3_links_network.content_distribution 	repo-1_card 	33152
scalar one_cache_scenario_3_links_network.content_distribution 	repo-2_card 	33576
scalar one_cache_scenario_3_links_network.statistics 	p_hit 	0.58169499945912
scalar one_cache_scenario_3_links_network.statistics 	interests 	35656.142857143
scalar one_cache_scenario_3_links_network.statistics 	data 	9943.4285714286
scalar one_cache_scenario_3_links_network.statistics 	hdistance 	0.38671252132075
scalar one_cache_scenario_3_links_network.statistics 	avg_time 	0
scalar one_cache_scenario_3_links_network.statistics 	downloads 	179989
scalar one_cache_scenario_3_links_network.statistics 	total_cost 	57835
scalar one_cache_scenario_3_links_network.statistics 	total_replicas 	100000
scalar one_cache_scenario_3_links_network.statistics 	interests_sent 	179989
scalar one_cache_scenario_3_links_network.node[0].core_layer 	interests[0] 	179989
scalar one_cache_scenario_3_links_network.node[0].core_layer 	data[0] 	34802
scalar one_cache_scenario_3_links_network.node[0].core_layer 	repo_int[0] 	34802
scalar one_cache_scenario_3_links_network.node[0].content_store 	p_hit[0] 	0.80664373933963
scalar one_cache_scenario_3_links_network.node[0].content_store 	hits[0] 	145187
scalar one_cache_scenario_3_links_network.node[0].content_store 	misses[0] 	34802
scalar one_cache_scenario_3_links_network.node[0].content_store 	decision_yes[0] 	5475
scalar one_cache_scenario_3_links_network.node[0].content_store 	decision_no[0] 	29327
scalar one_cache_scenario_3_links_network.node[0].content_store 	decision_ratio[0] 	0.15731854491121
scalar one_cache_scenario_3_links_network.node[0].content_store 	correction_factor[0] 	5.9404081740851e-317
scalar one_cache_scenario_3_links_network.node[0].content_store 	xi[0] 	0.5
scalar one_cache_scenario_3_links_network.node[1].core_layer 	interests[1] 	13899
scalar one_cache_scenario_3_links_network.node[1].core_layer 	data[1] 	13899
scalar one_cache_scenario_3_links_network.node[1].content_store 	p_hit[1] 	0
scalar one_cache_scenario_3_links_network.node[1].content_store 	hits[1] 	0
scalar one_cache_scenario_3_links_network.node[1].content_store 	misses[1] 	13899
scalar one_cache_scenario_3_links_network.node[1].content_store 	decision_yes[1] 	0
scalar one_cache_scenario_3_links_network.node[1].content_store 	decision_no[1] 	13899
scalar one_cache_scenario_3_links_network.node[1].content_store 	decision_ratio[1] 	0
scalar one_cache_scenario_3_links_network.node[2].core_layer 	interests[2] 	11670
scalar one_cache_scenario_3_links_network.node[2].core_layer 	data[2] 	11670
scalar one_cache_scenario_3_links_network.node[2].content_store 	p_hit[2] 	0
scalar one_cache_scenario_3_links_network.node[2].content_store 	hits[2] 	0
scalar one_cache_scenario_3_links_network.node[2].content_store 	misses[2] 	11670
scalar one_cache_scenario_3_links_network.node[2].content_store 	decision_yes[2] 	0
scalar one_cache_scenario_3_links_network.node[2].content_store 	decision_no[2] 	11670
scalar one_cache_scenario_3_links_network.node[2].content_store 	decision_ratio[2] 	0
scalar one_cache_scenario_3_links_network.node[3].core_layer 	interests[3] 	9233
scalar one_cache_scenario_3_links_network.node[3].core_layer 	data[3] 	9233
scalar one_cache_scenario_3_links_network.node[3].content_store 	p_hit[3] 	0
scalar one_cache_scenario_3_links_network.node[3].content_store 	hits[3] 	0
scalar one_cache_scenario_3_links_network.node[3].content_store 	misses[3] 	9233
scalar one_cache_scenario_3_links_network.node[3].content_store 	decision_yes[3] 	0
scalar one_cache_scenario_3_links_network.node[3].content_store 	decision_no[3] 	9233
scalar one_cache_scenario_3_links_network.node[3].content_store 	decision_ratio[3] 	0
scalar one_cache_scenario_3_links_network.node[4].core_layer 	interests[4] 	13899
scalar one_cache_scenario_3_links_network.node[4].core_layer 	repo_load[4] 	13899
scalar one_cache_scenario_3_links_network.node[4].core_layer 	data[4] 	0
scalar one_cache_scenario_3_links_network.node[4].content_store 	p_hit[4] 	0
scalar one_cache_scenario_3_links_network.node[4].content_store 	hits[4] 	0
scalar one_cache_scenario_3_links_network.node[4].content_store 	misses[4] 	13899
scalar one_cache_scenario_3_links_network.node[4].content_store 	decision_yes[4] 	0
scalar one_cache_scenario_3_links_network.node[4].content_store 	decision_no[4] 	13899
scalar one_cache_scenario_3_links_network.node[4].content_store 	decision_ratio[4] 	0
scalar one_cache_scenario_3_links_network.node[5].core_layer 	interests[5] 	11670
scalar one_cache_scenario_3_links_network.node[5].core_layer 	repo_load[5] 	11670
scalar one_cache_scenario_3_links_network.node[5].core_layer 	data[5] 	0
scalar one_cache_scenario_3_links_network.node[5].content_store 	p_hit[5] 	0
scalar one_cache_scenario_3_links_network.node[5].content_store 	hits[5] 	0
scalar one_cache_scenario_3_links_network.node[5].content_store 	misses[5] 	11670
scalar one_cache_scenario_3_links_network.node[5].content_store 	decision_yes[5] 	0
scalar one_cache_scenario_3_links_network.node[5].content_store 	decision_no[5] 	11670
scalar one_cache_scenario_3_links_network.node[5].content_store 	decision_ratio[5] 	0
scalar one_cache_scenario_3_links_network.node[6].core_layer 	interests[6] 	9233
scalar one_cache_scenario_3_links_network.node[6].core_layer 	repo_load[6] 	9233
scalar one_cache_scenario_3_links_network.node[6].core_layer 	data[6] 	0
scalar one_cache_scenario_3_links_network.node[6].content_store 	p_hit[6] 	0
scalar one_cache_scenario_3_links_network.node[6].content_store 	hits[6] 	0
scalar one_cache_scenario_3_links_network.node[6].content_store 	misses[6] 	9233
scalar one_cache_scenario_3_links_network.node[6].content_store 	decision_yes[6] 	0
scalar one_cache_scenario_3_links_network.node[6].content_store 	decision_no[6] 	9233
scalar one_cache_scenario_3_links_network.node[6].content_store 	decision_ratio[6] 	0
scalar one_cache_scenario_3_links_network.client[0] 	hdistance[0] 	0.38671252132075
scalar one_cache_scenario_3_links_network.client[0] 	downloads[0] 	179989
scalar one_cache_scenario_3_links_network.client[0] 	avg_time[0] 	0
scalar one_cache_scenario_3_links_network.client[0] 	interests_sent[0] 	179989
