version 2
run General-5095-20140423-20:40:46-32293
attr D fix0.01
attr F nrr
attr R lru
attr a 0.8
attr configname General
attr csize 2
attr ctlg 10^3
attr datetime 20140423-20:40:46
attr experiment General
attr inifile omnetpp.ini
attr iterationvars "$net=simple_scenario, $rep=15, $priceratiovalue=2, $a=0.8, $ctlg=10^3, $F=nrr, $ttl=1000, $D=fix0.01, $R=lru, $csize=2"
attr iterationvars2 "$net=simple_scenario, $rep=15, $priceratiovalue=2, $a=0.8, $ctlg=10^3, $F=nrr, $ttl=1000, $D=fix0.01, $R=lru, $csize=2, $repetition=0"
attr measurement "$net=simple_scenario, $rep=15, $priceratiovalue=2, $a=0.8, $ctlg=10^3, $F=nrr, $ttl=1000, $D=fix0.01, $R=lru, $csize=2"
attr net simple_scenario
attr network networks.${net=simple_scenario}_network
attr priceratiovalue 2
attr processid 32293
attr rep 15
attr repetition 0
attr replication #0
attr resultdir results
attr runnumber 5095
attr seedset 15
attr ttl 1000

scalar . 	a 	0.8
scalar . 	csize 	2
scalar . 	priceratiovalue 	2
scalar . 	rep 	15
scalar . 	ttl 	1000
scalar simple_scenario_network.content_distribution 	repo-0 	3
scalar simple_scenario_network.content_distribution 	repo-1 	4
scalar simple_scenario_network.content_distribution 	client-0 	0
scalar simple_scenario_network.content_distribution 	repo-0_card 	472
scalar simple_scenario_network.content_distribution 	repo-1_card 	528
scalar simple_scenario_network.statistics 	p_hit 	0.02870909223961
scalar simple_scenario_network.statistics 	interests 	103855.6
scalar simple_scenario_network.statistics 	data 	67814
scalar simple_scenario_network.statistics 	hdistance 	2.7988213619817
scalar simple_scenario_network.statistics 	avg_time 	0.001998079851
scalar simple_scenario_network.statistics 	downloads 	180208
scalar simple_scenario_network.statistics 	total_cost 	84697
scalar simple_scenario_network.node[0].core_layer 	interests[0] 	180208
scalar simple_scenario_network.node[0].core_layer 	data[0] 	173770
scalar simple_scenario_network.node[0].core_layer 	repo_int[0] 	165300
scalar simple_scenario_network.node[0].content_store 	p_hit[0] 	0.03572538400071
scalar simple_scenario_network.node[0].content_store 	hits[0] 	6438
scalar simple_scenario_network.node[0].content_store 	misses[0] 	173770
scalar simple_scenario_network.node[1].core_layer 	interests[1] 	81849
scalar simple_scenario_network.node[1].core_layer 	data[1] 	76509
scalar simple_scenario_network.node[1].content_store 	p_hit[1] 	0.065242092145292
scalar simple_scenario_network.node[1].content_store 	hits[1] 	5340
scalar simple_scenario_network.node[1].content_store 	misses[1] 	76509
scalar simple_scenario_network.node[2].core_layer 	interests[2] 	91921
scalar simple_scenario_network.node[2].core_layer 	data[2] 	88791
scalar simple_scenario_network.node[2].content_store 	p_hit[2] 	0.034050978557675
scalar simple_scenario_network.node[2].content_store 	hits[2] 	3130
scalar simple_scenario_network.node[2].content_store 	misses[2] 	88791
scalar simple_scenario_network.node[3].core_layer 	interests[3] 	76509
scalar simple_scenario_network.node[3].core_layer 	repo_load[3] 	76509
scalar simple_scenario_network.node[3].core_layer 	data[3] 	0
scalar simple_scenario_network.node[3].content_store 	p_hit[3] 	0
scalar simple_scenario_network.node[3].content_store 	hits[3] 	0
scalar simple_scenario_network.node[3].content_store 	misses[3] 	76509
scalar simple_scenario_network.node[4].core_layer 	interests[4] 	88791
scalar simple_scenario_network.node[4].core_layer 	repo_load[4] 	88791
scalar simple_scenario_network.node[4].core_layer 	data[4] 	0
scalar simple_scenario_network.node[4].content_store 	p_hit[4] 	0
scalar simple_scenario_network.node[4].content_store 	hits[4] 	0
scalar simple_scenario_network.node[4].content_store 	misses[4] 	88791
scalar simple_scenario_network.client[0] 	hdistance[0] 	2.7988213619817
scalar simple_scenario_network.client[0] 	downloads[0] 	180208
scalar simple_scenario_network.client[0] 	avg_time[0] 	0.001998079851
