version 2
run General-697-20140422-19:53:26-27439
attr D fix0.1
attr F nrr
attr R lru
attr a 0
attr configname General
attr csize 10
attr ctlg 10^3
attr datetime 20140422-19:53:26
attr experiment General
attr inifile omnetpp.ini
attr iterationvars "$net=simple_scenario, $rep=6, $priceratiovalue=9, $a=0, $ctlg=10^3, $F=nrr, $ttl=1000, $D=fix0.1, $R=lru, $csize=10"
attr iterationvars2 "$net=simple_scenario, $rep=6, $priceratiovalue=9, $a=0, $ctlg=10^3, $F=nrr, $ttl=1000, $D=fix0.1, $R=lru, $csize=10, $repetition=0"
attr measurement "$net=simple_scenario, $rep=6, $priceratiovalue=9, $a=0, $ctlg=10^3, $F=nrr, $ttl=1000, $D=fix0.1, $R=lru, $csize=10"
attr net simple_scenario
attr network networks.${net=simple_scenario}_network
attr priceratiovalue 9
attr processid 27439
attr rep 6
attr repetition 0
attr replication #0
attr resultdir results
attr runnumber 697
attr seedset 6
attr ttl 1000

scalar . 	a 	0
scalar . 	csize 	10
scalar . 	priceratiovalue 	9
scalar . 	rep 	6
scalar . 	ttl 	1000
scalar simple_scenario_network.content_distribution 	repo-0 	3
scalar simple_scenario_network.content_distribution 	repo-1 	4
scalar simple_scenario_network.content_distribution 	client-0 	0
scalar simple_scenario_network.content_distribution 	repo-0_card 	495
scalar simple_scenario_network.content_distribution 	repo-1_card 	505
scalar simple_scenario_network.statistics 	p_hit 	0.0098561843717104
scalar simple_scenario_network.statistics 	interests 	106775.6
scalar simple_scenario_network.statistics 	data 	70716.4
scalar simple_scenario_network.statistics 	hdistance 	2.9319345302473
scalar simple_scenario_network.statistics 	avg_time 	0.001999813397
scalar simple_scenario_network.statistics 	downloads 	180297
scalar simple_scenario_network.statistics 	total_cost 	87871
scalar simple_scenario_network.node[0].core_layer 	interests[0] 	180296
scalar simple_scenario_network.node[0].core_layer 	data[0] 	178548
scalar simple_scenario_network.node[0].core_layer 	repo_int[0] 	175034
scalar simple_scenario_network.node[0].content_store 	p_hit[0] 	0.0096951679460443
scalar simple_scenario_network.node[0].content_store 	hits[0] 	1748
scalar simple_scenario_network.node[0].content_store 	misses[0] 	178548
scalar simple_scenario_network.node[1].core_layer 	interests[1] 	88839
scalar simple_scenario_network.node[1].core_layer 	data[1] 	87074
scalar simple_scenario_network.node[1].content_store 	p_hit[1] 	0.019867400578575
scalar simple_scenario_network.node[1].content_store 	hits[1] 	1765
scalar simple_scenario_network.node[1].content_store 	misses[1] 	87074
scalar simple_scenario_network.node[2].core_layer 	interests[2] 	89709
scalar simple_scenario_network.node[2].core_layer 	data[2] 	87960
scalar simple_scenario_network.node[2].content_store 	p_hit[2] 	0.019496371601512
scalar simple_scenario_network.node[2].content_store 	hits[2] 	1749
scalar simple_scenario_network.node[2].content_store 	misses[2] 	87960
scalar simple_scenario_network.node[3].core_layer 	interests[3] 	87074
scalar simple_scenario_network.node[3].core_layer 	repo_load[3] 	87074
scalar simple_scenario_network.node[3].core_layer 	data[3] 	0
scalar simple_scenario_network.node[3].content_store 	p_hit[3] 	0
scalar simple_scenario_network.node[3].content_store 	hits[3] 	0
scalar simple_scenario_network.node[3].content_store 	misses[3] 	87074
scalar simple_scenario_network.node[4].core_layer 	interests[4] 	87960
scalar simple_scenario_network.node[4].core_layer 	repo_load[4] 	87960
scalar simple_scenario_network.node[4].core_layer 	data[4] 	0
scalar simple_scenario_network.node[4].content_store 	p_hit[4] 	0
scalar simple_scenario_network.node[4].content_store 	hits[4] 	0
scalar simple_scenario_network.node[4].content_store 	misses[4] 	87960
scalar simple_scenario_network.client[0] 	hdistance[0] 	2.9319345302473
scalar simple_scenario_network.client[0] 	downloads[0] 	180297
scalar simple_scenario_network.client[0] 	avg_time[0] 	0.001999813397
