version 2
run General-379-20140424-12:39:31-13013
attr D fix0.1
attr F nrr
attr R lru
attr a 0
attr configname General
attr csize 10
attr ctlg 10^3
attr datetime 20140424-12:39:31
attr experiment General
attr inifile omnetpp.ini
attr iterationvars "$net=simple_scenario, $rep=2, $priceratiovalue=9, $a=0, $ctlg=10^3, $F=nrr, $ttl=1000, $D=fix0.1, $R=lru, $csize=10"
attr iterationvars2 "$net=simple_scenario, $rep=2, $priceratiovalue=9, $a=0, $ctlg=10^3, $F=nrr, $ttl=1000, $D=fix0.1, $R=lru, $csize=10, $repetition=0"
attr measurement "$net=simple_scenario, $rep=2, $priceratiovalue=9, $a=0, $ctlg=10^3, $F=nrr, $ttl=1000, $D=fix0.1, $R=lru, $csize=10"
attr net simple_scenario
attr network networks.${net=simple_scenario}_network
attr priceratiovalue 9
attr processid 13013
attr rep 2
attr repetition 0
attr replication #0
attr resultdir results
attr runnumber 379
attr seedset 2
attr ttl 1000

scalar . 	a 	0
scalar . 	csize 	10
scalar . 	priceratiovalue 	9
scalar . 	rep 	2
scalar . 	ttl 	1000
scalar simple_scenario_network.content_distribution 	repo-0 	3
scalar simple_scenario_network.content_distribution 	repo-1 	4
scalar simple_scenario_network.content_distribution 	client-0 	0
scalar simple_scenario_network.content_distribution 	repo-0_card 	504
scalar simple_scenario_network.content_distribution 	repo-1_card 	496
scalar simple_scenario_network.statistics 	p_hit 	0.0098659179764372
scalar simple_scenario_network.statistics 	interests 	106710.8
scalar simple_scenario_network.statistics 	data 	70668
scalar simple_scenario_network.statistics 	hdistance 	2.9314592650959
scalar simple_scenario_network.statistics 	avg_time 	0.001999682321
scalar simple_scenario_network.statistics 	downloads 	180214
scalar simple_scenario_network.statistics 	total_cost 	86709
scalar simple_scenario_network.node[0].core_layer 	interests[0] 	180214
scalar simple_scenario_network.node[0].core_layer 	data[0] 	178390
scalar simple_scenario_network.node[0].core_layer 	repo_int[0] 	174950
scalar simple_scenario_network.node[0].content_store 	p_hit[0] 	0.010121300231946
scalar simple_scenario_network.node[0].content_store 	hits[0] 	1824
scalar simple_scenario_network.node[0].content_store 	misses[0] 	178390
scalar simple_scenario_network.node[1].core_layer 	interests[1] 	90127
scalar simple_scenario_network.node[1].core_layer 	data[1] 	88432
scalar simple_scenario_network.node[1].content_store 	p_hit[1] 	0.018806794856147
scalar simple_scenario_network.node[1].content_store 	hits[1] 	1695
scalar simple_scenario_network.node[1].content_store 	misses[1] 	88432
scalar simple_scenario_network.node[2].core_layer 	interests[2] 	88263
scalar simple_scenario_network.node[2].core_layer 	data[2] 	86518
scalar simple_scenario_network.node[2].content_store 	p_hit[2] 	0.019770458742621
scalar simple_scenario_network.node[2].content_store 	hits[2] 	1745
scalar simple_scenario_network.node[2].content_store 	misses[2] 	86518
scalar simple_scenario_network.node[3].core_layer 	interests[3] 	88432
scalar simple_scenario_network.node[3].core_layer 	repo_load[3] 	88432
scalar simple_scenario_network.node[3].core_layer 	data[3] 	0
scalar simple_scenario_network.node[3].content_store 	p_hit[3] 	0
scalar simple_scenario_network.node[3].content_store 	hits[3] 	0
scalar simple_scenario_network.node[3].content_store 	misses[3] 	88432
scalar simple_scenario_network.node[4].core_layer 	interests[4] 	86518
scalar simple_scenario_network.node[4].core_layer 	repo_load[4] 	86518
scalar simple_scenario_network.node[4].core_layer 	data[4] 	0
scalar simple_scenario_network.node[4].content_store 	p_hit[4] 	0
scalar simple_scenario_network.node[4].content_store 	hits[4] 	0
scalar simple_scenario_network.node[4].content_store 	misses[4] 	86518
scalar simple_scenario_network.client[0] 	hdistance[0] 	2.9314592650959
scalar simple_scenario_network.client[0] 	downloads[0] 	180214
scalar simple_scenario_network.client[0] 	avg_time[0] 	0.001999682321
