version 2
run General-8-20140512-16:52:17-30179
attr D costprobprodcorr0.01
attr F spr
attr R lru
attr a 1
attr configname General
attr csize 1e3
attr ctlg 1e5
attr datetime 20140512-16:52:17
attr experiment General
attr inifile omnetpp.ini
attr iterationvars "$net=abilene_cost, $rep=1, $priceratiovalue=10, $weights=0.333_0.333_0.334, $a=1, $ctlg=1e5, $F=spr, $ttl=1000, $D=costprobprodcorr0.01, $xi=4, $R=lru, $csize=1e3"
attr iterationvars2 "$net=abilene_cost, $rep=1, $priceratiovalue=10, $weights=0.333_0.333_0.334, $a=1, $ctlg=1e5, $F=spr, $ttl=1000, $D=costprobprodcorr0.01, $xi=4, $R=lru, $csize=1e3, $repetition=0"
attr measurement "$net=abilene_cost, $rep=1, $priceratiovalue=10, $weights=0.333_0.333_0.334, $a=1, $ctlg=1e5, $F=spr, $ttl=1000, $D=costprobprodcorr0.01, $xi=4, $R=lru, $csize=1e3"
attr net abilene_cost
attr network networks.${net=abilene_cost}_network
attr priceratiovalue 10
attr processid 30179
attr rep 1
attr repetition 0
attr replication #0
attr resultdir results
attr runnumber 8
attr seedset 1
attr ttl 1000
attr weights 0.333_0.333_0.334
attr xi 4

scalar . 	a 	1
scalar . 	csize 	1e3
scalar . 	ctlg 	1e5
scalar . 	priceratiovalue 	10
scalar . 	rep 	1
scalar . 	ttl 	1000
scalar . 	xi 	4
scalar abilene_cost_network.content_distribution 	repo-0 	11
scalar abilene_cost_network.content_distribution 	repo-1 	12
scalar abilene_cost_network.content_distribution 	repo-2 	13
scalar abilene_cost_network.content_distribution 	client-0 	3
scalar abilene_cost_network.content_distribution 	client-1 	7
scalar abilene_cost_network.content_distribution 	client-2 	10
scalar abilene_cost_network.content_distribution 	repo-0_card 	33396
scalar abilene_cost_network.content_distribution 	repo-1_card 	33039
scalar abilene_cost_network.content_distribution 	repo-2_card 	33565
scalar abilene_cost_network.statistics 	p_hit 	0.075236964060956
scalar abilene_cost_network.statistics 	interests 	153112.42857143
scalar abilene_cost_network.statistics 	data 	114608.78571429
scalar abilene_cost_network.statistics 	hdistance 	3.6775444208111
scalar abilene_cost_network.statistics 	avg_time 	0
scalar abilene_cost_network.statistics 	downloads 	539051
scalar abilene_cost_network.statistics 	total_cost 	997210
scalar abilene_cost_network.statistics 	total_replicas 	100000
scalar abilene_cost_network.statistics 	interests_sent 	539051
scalar abilene_cost_network.node[0].core_layer 	interests[0] 	153773
scalar abilene_cost_network.node[0].core_layer 	data[0] 	153773
scalar abilene_cost_network.node[0].core_layer 	repo_int[0] 	377775
scalar abilene_cost_network.node[0].content_store 	p_hit[0] 	0
scalar abilene_cost_network.node[0].content_store 	hits[0] 	0
scalar abilene_cost_network.node[0].content_store 	misses[0] 	153773
scalar abilene_cost_network.node[0].content_store 	decision_yes[0] 	0
scalar abilene_cost_network.node[0].content_store 	decision_no[0] 	153773
scalar abilene_cost_network.node[0].content_store 	decision_ratio[0] 	0
scalar abilene_cost_network.node[0].content_store 	correction_factor[0] 	2.9937135010192e-06
scalar abilene_cost_network.node[0].content_store 	xi[0] 	4
scalar abilene_cost_network.node[1].core_layer 	interests[1] 	103421
scalar abilene_cost_network.node[1].core_layer 	data[1] 	103195
scalar abilene_cost_network.node[1].content_store 	p_hit[1] 	0.0021852428423628
scalar abilene_cost_network.node[1].content_store 	hits[1] 	226
scalar abilene_cost_network.node[1].content_store 	misses[1] 	103195
scalar abilene_cost_network.node[1].content_store 	decision_yes[1] 	2
scalar abilene_cost_network.node[1].content_store 	decision_no[1] 	103193
scalar abilene_cost_network.node[1].content_store 	decision_ratio[1] 	1.9380783952711e-05
scalar abilene_cost_network.node[1].content_store 	correction_factor[1] 	2.9937135010192e-06
scalar abilene_cost_network.node[1].content_store 	xi[1] 	4
scalar abilene_cost_network.node[2].core_layer 	interests[2] 	103195
scalar abilene_cost_network.node[2].core_layer 	data[2] 	103158
scalar abilene_cost_network.node[2].content_store 	p_hit[2] 	0.00035854450312515
scalar abilene_cost_network.node[2].content_store 	hits[2] 	37
scalar abilene_cost_network.node[2].content_store 	misses[2] 	103158
scalar abilene_cost_network.node[2].content_store 	decision_yes[2] 	0
scalar abilene_cost_network.node[2].content_store 	decision_no[2] 	103158
scalar abilene_cost_network.node[2].content_store 	decision_ratio[2] 	0
scalar abilene_cost_network.node[2].content_store 	correction_factor[2] 	2.9937135010192e-06
scalar abilene_cost_network.node[2].content_store 	xi[2] 	4
scalar abilene_cost_network.node[3].core_layer 	interests[3] 	231741
scalar abilene_cost_network.node[3].core_layer 	data[3] 	216525
scalar abilene_cost_network.node[3].content_store 	p_hit[3] 	0.065659507812601
scalar abilene_cost_network.node[3].content_store 	hits[3] 	15216
scalar abilene_cost_network.node[3].content_store 	misses[3] 	216525
scalar abilene_cost_network.node[3].content_store 	decision_yes[3] 	826
scalar abilene_cost_network.node[3].content_store 	decision_no[3] 	215699
scalar abilene_cost_network.node[3].content_store 	decision_ratio[3] 	0.0038148019859139
scalar abilene_cost_network.node[3].content_store 	correction_factor[3] 	2.9937135010192e-06
scalar abilene_cost_network.node[3].content_store 	xi[3] 	4
scalar abilene_cost_network.node[4].core_layer 	interests[4] 	99165
scalar abilene_cost_network.node[4].core_layer 	data[4] 	88151
scalar abilene_cost_network.node[4].content_store 	p_hit[4] 	0.1110674128977
scalar abilene_cost_network.node[4].content_store 	hits[4] 	11014
scalar abilene_cost_network.node[4].content_store 	misses[4] 	88151
scalar abilene_cost_network.node[4].content_store 	decision_yes[4] 	0
scalar abilene_cost_network.node[4].content_store 	decision_no[4] 	88151
scalar abilene_cost_network.node[4].content_store 	decision_ratio[4] 	0
scalar abilene_cost_network.node[4].content_store 	correction_factor[4] 	2.9937135010192e-06
scalar abilene_cost_network.node[4].content_store 	xi[4] 	4
scalar abilene_cost_network.node[5].core_layer 	interests[5] 	140266
scalar abilene_cost_network.node[5].core_layer 	data[5] 	138090
scalar abilene_cost_network.node[5].content_store 	p_hit[5] 	0.015513381717594
scalar abilene_cost_network.node[5].content_store 	hits[5] 	2176
scalar abilene_cost_network.node[5].content_store 	misses[5] 	138090
scalar abilene_cost_network.node[5].content_store 	decision_yes[5] 	1
scalar abilene_cost_network.node[5].content_store 	decision_no[5] 	138089
scalar abilene_cost_network.node[5].content_store 	decision_ratio[5] 	7.2416539937722e-06
scalar abilene_cost_network.node[5].content_store 	correction_factor[5] 	2.9937135010192e-06
scalar abilene_cost_network.node[5].content_store 	xi[5] 	4
scalar abilene_cost_network.node[6].core_layer 	interests[6] 	52117
scalar abilene_cost_network.node[6].core_layer 	data[6] 	52115
scalar abilene_cost_network.node[6].content_store 	p_hit[6] 	3.8375194274421e-05
scalar abilene_cost_network.node[6].content_store 	hits[6] 	2
scalar abilene_cost_network.node[6].content_store 	misses[6] 	52115
scalar abilene_cost_network.node[6].content_store 	decision_yes[6] 	0
scalar abilene_cost_network.node[6].content_store 	decision_no[6] 	52115
scalar abilene_cost_network.node[6].content_store 	decision_ratio[6] 	0
scalar abilene_cost_network.node[6].content_store 	correction_factor[6] 	2.9937135010192e-06
scalar abilene_cost_network.node[6].content_store 	xi[6] 	4
scalar abilene_cost_network.node[7].core_layer 	interests[7] 	245609
scalar abilene_cost_network.node[7].core_layer 	data[7] 	232780
scalar abilene_cost_network.node[7].content_store 	p_hit[7] 	0.05223342792813
scalar abilene_cost_network.node[7].content_store 	hits[7] 	12829
scalar abilene_cost_network.node[7].content_store 	misses[7] 	232780
scalar abilene_cost_network.node[7].content_store 	decision_yes[7] 	1714
scalar abilene_cost_network.node[7].content_store 	decision_no[7] 	231066
scalar abilene_cost_network.node[7].content_store 	decision_ratio[7] 	0.0073631755305439
scalar abilene_cost_network.node[7].content_store 	correction_factor[7] 	2.9937135010192e-06
scalar abilene_cost_network.node[7].content_store 	xi[7] 	4
scalar abilene_cost_network.node[8].core_layer 	interests[8] 	180663
scalar abilene_cost_network.node[8].core_layer 	data[8] 	169380
scalar abilene_cost_network.node[8].content_store 	p_hit[8] 	0.062453297022633
scalar abilene_cost_network.node[8].content_store 	hits[8] 	11283
scalar abilene_cost_network.node[8].content_store 	misses[8] 	169380
scalar abilene_cost_network.node[8].content_store 	decision_yes[8] 	1724
scalar abilene_cost_network.node[8].content_store 	decision_no[8] 	167656
scalar abilene_cost_network.node[8].content_store 	decision_ratio[8] 	0.010178297319636
scalar abilene_cost_network.node[8].content_store 	correction_factor[8] 	2.9937135010192e-06
scalar abilene_cost_network.node[8].content_store 	xi[8] 	4
scalar abilene_cost_network.node[9].core_layer 	interests[9] 	224854
scalar abilene_cost_network.node[9].core_layer 	data[9] 	137090
scalar abilene_cost_network.node[9].content_store 	p_hit[9] 	0.39031549360919
scalar abilene_cost_network.node[9].content_store 	hits[9] 	87764
scalar abilene_cost_network.node[9].content_store 	misses[9] 	137090
scalar abilene_cost_network.node[9].content_store 	decision_yes[9] 	2607
scalar abilene_cost_network.node[9].content_store 	decision_no[9] 	134483
scalar abilene_cost_network.node[9].content_store 	decision_ratio[9] 	0.019016704354803
scalar abilene_cost_network.node[9].content_store 	correction_factor[9] 	2.9937135010192e-06
scalar abilene_cost_network.node[9].content_store 	xi[9] 	4
scalar abilene_cost_network.node[10].core_layer 	interests[10] 	230995
scalar abilene_cost_network.node[10].core_layer 	data[10] 	210266
scalar abilene_cost_network.node[10].content_store 	p_hit[10] 	0.089737873114137
scalar abilene_cost_network.node[10].content_store 	hits[10] 	20729
scalar abilene_cost_network.node[10].content_store 	misses[10] 	210266
scalar abilene_cost_network.node[10].content_store 	decision_yes[10] 	879
scalar abilene_cost_network.node[10].content_store 	decision_no[10] 	209387
scalar abilene_cost_network.node[10].content_store 	decision_ratio[10] 	0.0041804190882026
scalar abilene_cost_network.node[10].content_store 	correction_factor[10] 	2.9937135010192e-06
scalar abilene_cost_network.node[10].content_store 	xi[10] 	4
scalar abilene_cost_network.node[11].core_layer 	interests[11] 	153773
scalar abilene_cost_network.node[11].core_layer 	repo_load[11] 	153773
scalar abilene_cost_network.node[11].core_layer 	data[11] 	0
scalar abilene_cost_network.node[11].content_store 	p_hit[11] 	0
scalar abilene_cost_network.node[11].content_store 	hits[11] 	0
scalar abilene_cost_network.node[11].content_store 	misses[11] 	153773
scalar abilene_cost_network.node[11].content_store 	decision_yes[11] 	0
scalar abilene_cost_network.node[11].content_store 	decision_no[11] 	153773
scalar abilene_cost_network.node[11].content_store 	decision_ratio[11] 	0
scalar abilene_cost_network.node[12].core_layer 	interests[12] 	138090
scalar abilene_cost_network.node[12].core_layer 	repo_load[12] 	138090
scalar abilene_cost_network.node[12].core_layer 	data[12] 	0
scalar abilene_cost_network.node[12].content_store 	p_hit[12] 	0
scalar abilene_cost_network.node[12].content_store 	hits[12] 	0
scalar abilene_cost_network.node[12].content_store 	misses[12] 	138090
scalar abilene_cost_network.node[12].content_store 	decision_yes[12] 	0
scalar abilene_cost_network.node[12].content_store 	decision_no[12] 	138090
scalar abilene_cost_network.node[12].content_store 	decision_ratio[12] 	0
scalar abilene_cost_network.node[13].core_layer 	interests[13] 	85912
scalar abilene_cost_network.node[13].core_layer 	repo_load[13] 	85912
scalar abilene_cost_network.node[13].core_layer 	data[13] 	0
scalar abilene_cost_network.node[13].content_store 	p_hit[13] 	0
scalar abilene_cost_network.node[13].content_store 	hits[13] 	0
scalar abilene_cost_network.node[13].content_store 	misses[13] 	85912
scalar abilene_cost_network.node[13].content_store 	decision_yes[13] 	0
scalar abilene_cost_network.node[13].content_store 	decision_no[13] 	85912
scalar abilene_cost_network.node[13].content_store 	decision_ratio[13] 	0
scalar abilene_cost_network.client[3] 	hdistance[3] 	3.7592333021848
scalar abilene_cost_network.client[3] 	downloads[3] 	179784
scalar abilene_cost_network.client[3] 	avg_time[3] 	0
scalar abilene_cost_network.client[3] 	interests_sent[3] 	179784
scalar abilene_cost_network.client[7] 	hdistance[7] 	3.9045249373084
scalar abilene_cost_network.client[7] 	downloads[7] 	179450
scalar abilene_cost_network.client[7] 	avg_time[7] 	0
scalar abilene_cost_network.client[7] 	interests_sent[7] 	179450
scalar abilene_cost_network.client[10] 	hdistance[10] 	3.36887502294
scalar abilene_cost_network.client[10] 	downloads[10] 	179817
scalar abilene_cost_network.client[10] 	avg_time[10] 	0
scalar abilene_cost_network.client[10] 	interests_sent[10] 	179817
