version 2
run General-366-20140502-12:25:33-15754
attr D costprob0.05
attr F nrr
attr R lru
attr a 0.8
attr configname General
attr csize 1e3
attr ctlg 1e5
attr datetime 20140502-12:25:33
attr experiment General
attr inifile omnetpp.ini
attr iterationvars "$net=three_caches_scenario_3_links, $rep=3, $priceratiovalue=5, $weights=0.333_0.333_0.334, $a=0.8, $ctlg=1e5, $F=nrr, $ttl=1000, $D=costprob0.05, $xi=1, $R=lru, $csize=1e3"
attr iterationvars2 "$net=three_caches_scenario_3_links, $rep=3, $priceratiovalue=5, $weights=0.333_0.333_0.334, $a=0.8, $ctlg=1e5, $F=nrr, $ttl=1000, $D=costprob0.05, $xi=1, $R=lru, $csize=1e3, $repetition=0"
attr measurement "$net=three_caches_scenario_3_links, $rep=3, $priceratiovalue=5, $weights=0.333_0.333_0.334, $a=0.8, $ctlg=1e5, $F=nrr, $ttl=1000, $D=costprob0.05, $xi=1, $R=lru, $csize=1e3"
attr net three_caches_scenario_3_links
attr network networks.${net=three_caches_scenario_3_links}_network
attr priceratiovalue 5
attr processid 15754
attr rep 3
attr repetition 0
attr replication #0
attr resultdir results
attr runnumber 366
attr seedset 3
attr ttl 1000
attr weights 0.333_0.333_0.334
attr xi 1

scalar . 	a 	0.8
scalar . 	csize 	1e3
scalar . 	ctlg 	1e5
scalar . 	priceratiovalue 	5
scalar . 	rep 	3
scalar . 	ttl 	1000
scalar . 	xi 	1
scalar three_caches_scenario_3_links_network.content_distribution 	repo-0 	4
scalar three_caches_scenario_3_links_network.content_distribution 	repo-1 	5
scalar three_caches_scenario_3_links_network.content_distribution 	repo-2 	6
scalar three_caches_scenario_3_links_network.content_distribution 	client-0 	0
scalar three_caches_scenario_3_links_network.content_distribution 	repo-0_card 	33329
scalar three_caches_scenario_3_links_network.content_distribution 	repo-1_card 	33051
scalar three_caches_scenario_3_links_network.content_distribution 	repo-2_card 	33620
scalar three_caches_scenario_3_links_network.statistics 	p_hit 	0.060847933458822
scalar three_caches_scenario_3_links_network.statistics 	interests 	71036.571428571
scalar three_caches_scenario_3_links_network.statistics 	data 	45356.142857143
scalar three_caches_scenario_3_links_network.statistics 	hdistance 	2.2446387743862
scalar three_caches_scenario_3_links_network.statistics 	avg_time 	0
scalar three_caches_scenario_3_links_network.statistics 	downloads 	179763
scalar three_caches_scenario_3_links_network.statistics 	total_cost 	259182
scalar three_caches_scenario_3_links_network.statistics 	total_replicas 	100000
scalar three_caches_scenario_3_links_network.statistics 	interests_sent 	179763
scalar three_caches_scenario_3_links_network.node[0].core_layer 	interests[0] 	179763
scalar three_caches_scenario_3_links_network.node[0].core_layer 	data[0] 	167987
scalar three_caches_scenario_3_links_network.node[0].core_layer 	repo_int[0] 	149506
scalar three_caches_scenario_3_links_network.node[0].content_store 	p_hit[0] 	0.065508475047702
scalar three_caches_scenario_3_links_network.node[0].content_store 	hits[0] 	11776
scalar three_caches_scenario_3_links_network.node[0].content_store 	misses[0] 	167987
scalar three_caches_scenario_3_links_network.node[0].content_store 	decision_yes[0] 	6284
scalar three_caches_scenario_3_links_network.node[0].content_store 	decision_no[0] 	161703
scalar three_caches_scenario_3_links_network.node[1].core_layer 	interests[1] 	63496
scalar three_caches_scenario_3_links_network.node[1].core_layer 	data[1] 	63496
scalar three_caches_scenario_3_links_network.node[1].content_store 	p_hit[1] 	0
scalar three_caches_scenario_3_links_network.node[1].content_store 	hits[1] 	0
scalar three_caches_scenario_3_links_network.node[1].content_store 	misses[1] 	63496
scalar three_caches_scenario_3_links_network.node[1].content_store 	decision_yes[1] 	0
scalar three_caches_scenario_3_links_network.node[1].content_store 	decision_no[1] 	63496
scalar three_caches_scenario_3_links_network.node[2].core_layer 	interests[2] 	54037
scalar three_caches_scenario_3_links_network.node[2].core_layer 	data[2] 	42717
scalar three_caches_scenario_3_links_network.node[2].content_store 	p_hit[2] 	0.2094860928623
scalar three_caches_scenario_3_links_network.node[2].content_store 	hits[2] 	11320
scalar three_caches_scenario_3_links_network.node[2].content_store 	misses[2] 	42717
scalar three_caches_scenario_3_links_network.node[2].content_store 	decision_yes[2] 	1101
scalar three_caches_scenario_3_links_network.node[2].content_store 	decision_no[2] 	41616
scalar three_caches_scenario_3_links_network.node[3].core_layer 	interests[3] 	50454
scalar three_caches_scenario_3_links_network.node[3].core_layer 	data[3] 	43293
scalar three_caches_scenario_3_links_network.node[3].content_store 	p_hit[3] 	0.14193126412177
scalar three_caches_scenario_3_links_network.node[3].content_store 	hits[3] 	7161
scalar three_caches_scenario_3_links_network.node[3].content_store 	misses[3] 	43293
scalar three_caches_scenario_3_links_network.node[3].content_store 	decision_yes[3] 	5333
scalar three_caches_scenario_3_links_network.node[3].content_store 	decision_no[3] 	37960
scalar three_caches_scenario_3_links_network.node[4].core_layer 	interests[4] 	63496
scalar three_caches_scenario_3_links_network.node[4].core_layer 	repo_load[4] 	63496
scalar three_caches_scenario_3_links_network.node[4].core_layer 	data[4] 	0
scalar three_caches_scenario_3_links_network.node[4].content_store 	p_hit[4] 	0
scalar three_caches_scenario_3_links_network.node[4].content_store 	hits[4] 	0
scalar three_caches_scenario_3_links_network.node[4].content_store 	misses[4] 	63496
scalar three_caches_scenario_3_links_network.node[4].content_store 	decision_yes[4] 	0
scalar three_caches_scenario_3_links_network.node[4].content_store 	decision_no[4] 	63496
scalar three_caches_scenario_3_links_network.node[5].core_layer 	interests[5] 	42717
scalar three_caches_scenario_3_links_network.node[5].core_layer 	repo_load[5] 	42717
scalar three_caches_scenario_3_links_network.node[5].core_layer 	data[5] 	0
scalar three_caches_scenario_3_links_network.node[5].content_store 	p_hit[5] 	0
scalar three_caches_scenario_3_links_network.node[5].content_store 	hits[5] 	0
scalar three_caches_scenario_3_links_network.node[5].content_store 	misses[5] 	42717
scalar three_caches_scenario_3_links_network.node[5].content_store 	decision_yes[5] 	0
scalar three_caches_scenario_3_links_network.node[5].content_store 	decision_no[5] 	42717
scalar three_caches_scenario_3_links_network.node[6].core_layer 	interests[6] 	43293
scalar three_caches_scenario_3_links_network.node[6].core_layer 	repo_load[6] 	43293
scalar three_caches_scenario_3_links_network.node[6].core_layer 	data[6] 	0
scalar three_caches_scenario_3_links_network.node[6].content_store 	p_hit[6] 	0
scalar three_caches_scenario_3_links_network.node[6].content_store 	hits[6] 	0
scalar three_caches_scenario_3_links_network.node[6].content_store 	misses[6] 	43293
scalar three_caches_scenario_3_links_network.node[6].content_store 	decision_yes[6] 	0
scalar three_caches_scenario_3_links_network.node[6].content_store 	decision_no[6] 	43293
scalar three_caches_scenario_3_links_network.client[0] 	hdistance[0] 	2.2446387743862
scalar three_caches_scenario_3_links_network.client[0] 	downloads[0] 	179763
scalar three_caches_scenario_3_links_network.client[0] 	avg_time[0] 	0
scalar three_caches_scenario_3_links_network.client[0] 	interests_sent[0] 	179763
