version 2
run General-106-20140501-20:40:11-7212
attr D costprob0.01
attr F nrr
attr R lru
attr a 1.2
attr configname General
attr csize 1e3
attr ctlg 1e5
attr datetime 20140501-20:40:11
attr experiment General
attr inifile omnetpp.ini
attr iterationvars "$net=one_cache_scenario_3_links, $rep=1, $priceratiovalue=5, $weights=0.333_0.333_0.334, $a=1.2, $ctlg=1e5, $F=nrr, $ttl=1000, $D=costprob0.01, $xi=1, $R=lru, $csize=1e3"
attr iterationvars2 "$net=one_cache_scenario_3_links, $rep=1, $priceratiovalue=5, $weights=0.333_0.333_0.334, $a=1.2, $ctlg=1e5, $F=nrr, $ttl=1000, $D=costprob0.01, $xi=1, $R=lru, $csize=1e3, $repetition=0"
attr measurement "$net=one_cache_scenario_3_links, $rep=1, $priceratiovalue=5, $weights=0.333_0.333_0.334, $a=1.2, $ctlg=1e5, $F=nrr, $ttl=1000, $D=costprob0.01, $xi=1, $R=lru, $csize=1e3"
attr net one_cache_scenario_3_links
attr network networks.${net=one_cache_scenario_3_links}_network
attr priceratiovalue 5
attr processid 7212
attr rep 1
attr repetition 0
attr replication #0
attr resultdir results
attr runnumber 106
attr seedset 1
attr ttl 1000
attr weights 0.333_0.333_0.334
attr xi 1

scalar . 	a 	1.2
scalar . 	csize 	1e3
scalar . 	ctlg 	1e5
scalar . 	priceratiovalue 	5
scalar . 	rep 	1
scalar . 	ttl 	1000
scalar . 	xi 	1
scalar one_cache_scenario_3_links_network.content_distribution 	repo-0 	4
scalar one_cache_scenario_3_links_network.content_distribution 	repo-1 	5
scalar one_cache_scenario_3_links_network.content_distribution 	repo-2 	6
scalar one_cache_scenario_3_links_network.content_distribution 	client-0 	0
scalar one_cache_scenario_3_links_network.content_distribution 	repo-0_card 	33352
scalar one_cache_scenario_3_links_network.content_distribution 	repo-1_card 	33263
scalar one_cache_scenario_3_links_network.content_distribution 	repo-2_card 	33385
scalar one_cache_scenario_3_links_network.statistics 	p_hit 	0.28178579059521
scalar one_cache_scenario_3_links_network.statistics 	interests 	49476.285714286
scalar one_cache_scenario_3_links_network.statistics 	data 	23689.714285714
scalar one_cache_scenario_3_links_network.statistics 	hdistance 	0.91868414346338
scalar one_cache_scenario_3_links_network.statistics 	avg_time 	0
scalar one_cache_scenario_3_links_network.statistics 	downloads 	180506
scalar one_cache_scenario_3_links_network.statistics 	total_cost 	58004
scalar one_cache_scenario_3_links_network.statistics 	total_replicas 	100000
scalar one_cache_scenario_3_links_network.statistics 	interests_sent 	180506
scalar one_cache_scenario_3_links_network.node[0].core_layer 	interests[0] 	180506
scalar one_cache_scenario_3_links_network.node[0].core_layer 	data[0] 	82914
scalar one_cache_scenario_3_links_network.node[0].core_layer 	repo_int[0] 	82914
scalar one_cache_scenario_3_links_network.node[0].content_store 	p_hit[0] 	0.54065792826831
scalar one_cache_scenario_3_links_network.node[0].content_store 	hits[0] 	97592
scalar one_cache_scenario_3_links_network.node[0].content_store 	misses[0] 	82914
scalar one_cache_scenario_3_links_network.node[0].content_store 	decision_yes[0] 	292
scalar one_cache_scenario_3_links_network.node[0].content_store 	decision_no[0] 	82622
scalar one_cache_scenario_3_links_network.node[1].core_layer 	interests[1] 	61090
scalar one_cache_scenario_3_links_network.node[1].core_layer 	data[1] 	61090
scalar one_cache_scenario_3_links_network.node[1].content_store 	p_hit[1] 	0
scalar one_cache_scenario_3_links_network.node[1].content_store 	hits[1] 	0
scalar one_cache_scenario_3_links_network.node[1].content_store 	misses[1] 	61090
scalar one_cache_scenario_3_links_network.node[1].content_store 	decision_yes[1] 	0
scalar one_cache_scenario_3_links_network.node[1].content_store 	decision_no[1] 	61090
scalar one_cache_scenario_3_links_network.node[2].core_layer 	interests[2] 	12779
scalar one_cache_scenario_3_links_network.node[2].core_layer 	data[2] 	12779
scalar one_cache_scenario_3_links_network.node[2].content_store 	p_hit[2] 	0
scalar one_cache_scenario_3_links_network.node[2].content_store 	hits[2] 	0
scalar one_cache_scenario_3_links_network.node[2].content_store 	misses[2] 	12779
scalar one_cache_scenario_3_links_network.node[2].content_store 	decision_yes[2] 	0
scalar one_cache_scenario_3_links_network.node[2].content_store 	decision_no[2] 	12779
scalar one_cache_scenario_3_links_network.node[3].core_layer 	interests[3] 	9045
scalar one_cache_scenario_3_links_network.node[3].core_layer 	data[3] 	9045
scalar one_cache_scenario_3_links_network.node[3].content_store 	p_hit[3] 	0
scalar one_cache_scenario_3_links_network.node[3].content_store 	hits[3] 	0
scalar one_cache_scenario_3_links_network.node[3].content_store 	misses[3] 	9045
scalar one_cache_scenario_3_links_network.node[3].content_store 	decision_yes[3] 	0
scalar one_cache_scenario_3_links_network.node[3].content_store 	decision_no[3] 	9045
scalar one_cache_scenario_3_links_network.node[4].core_layer 	interests[4] 	61090
scalar one_cache_scenario_3_links_network.node[4].core_layer 	repo_load[4] 	61090
scalar one_cache_scenario_3_links_network.node[4].core_layer 	data[4] 	0
scalar one_cache_scenario_3_links_network.node[4].content_store 	p_hit[4] 	0
scalar one_cache_scenario_3_links_network.node[4].content_store 	hits[4] 	0
scalar one_cache_scenario_3_links_network.node[4].content_store 	misses[4] 	61090
scalar one_cache_scenario_3_links_network.node[4].content_store 	decision_yes[4] 	0
scalar one_cache_scenario_3_links_network.node[4].content_store 	decision_no[4] 	61090
scalar one_cache_scenario_3_links_network.node[5].core_layer 	interests[5] 	12779
scalar one_cache_scenario_3_links_network.node[5].core_layer 	repo_load[5] 	12779
scalar one_cache_scenario_3_links_network.node[5].core_layer 	data[5] 	0
scalar one_cache_scenario_3_links_network.node[5].content_store 	p_hit[5] 	0
scalar one_cache_scenario_3_links_network.node[5].content_store 	hits[5] 	0
scalar one_cache_scenario_3_links_network.node[5].content_store 	misses[5] 	12779
scalar one_cache_scenario_3_links_network.node[5].content_store 	decision_yes[5] 	0
scalar one_cache_scenario_3_links_network.node[5].content_store 	decision_no[5] 	12779
scalar one_cache_scenario_3_links_network.node[6].core_layer 	interests[6] 	9045
scalar one_cache_scenario_3_links_network.node[6].core_layer 	repo_load[6] 	9045
scalar one_cache_scenario_3_links_network.node[6].core_layer 	data[6] 	0
scalar one_cache_scenario_3_links_network.node[6].content_store 	p_hit[6] 	0
scalar one_cache_scenario_3_links_network.node[6].content_store 	hits[6] 	0
scalar one_cache_scenario_3_links_network.node[6].content_store 	misses[6] 	9045
scalar one_cache_scenario_3_links_network.node[6].content_store 	decision_yes[6] 	0
scalar one_cache_scenario_3_links_network.node[6].content_store 	decision_no[6] 	9045
scalar one_cache_scenario_3_links_network.client[0] 	hdistance[0] 	0.91868414346338
scalar one_cache_scenario_3_links_network.client[0] 	downloads[0] 	180506
scalar one_cache_scenario_3_links_network.client[0] 	avg_time[0] 	0
scalar one_cache_scenario_3_links_network.client[0] 	interests_sent[0] 	180506
