version 2
run General-9-20140426-04:26:44-18436
attr D costprob0.02
attr F nrr
attr R lru
attr a 1
attr configname General
attr csize 100
attr ctlg 10^4
attr datetime 20140426-04:26:44
attr experiment General
attr inifile omnetpp.ini
attr iterationvars "$net=one_cache_scenario, $rep=2, $priceratiovalue=5, $a=1, $ctlg=10^4, $F=nrr, $ttl=1000, $D=costprob0.02, $R=lru, $csize=100"
attr iterationvars2 "$net=one_cache_scenario, $rep=2, $priceratiovalue=5, $a=1, $ctlg=10^4, $F=nrr, $ttl=1000, $D=costprob0.02, $R=lru, $csize=100, $repetition=0"
attr measurement "$net=one_cache_scenario, $rep=2, $priceratiovalue=5, $a=1, $ctlg=10^4, $F=nrr, $ttl=1000, $D=costprob0.02, $R=lru, $csize=100"
attr net one_cache_scenario
attr network networks.${net=one_cache_scenario}_network
attr priceratiovalue 5
attr processid 18436
attr rep 2
attr repetition 0
attr replication #0
attr resultdir results
attr runnumber 9
attr seedset 2
attr ttl 1000

scalar . 	a 	1
scalar . 	csize 	100
scalar . 	priceratiovalue 	5
scalar . 	rep 	2
scalar . 	ttl 	1000
scalar one_cache_scenario_network.content_distribution 	repo-0 	3
scalar one_cache_scenario_network.content_distribution 	repo-1 	4
scalar one_cache_scenario_network.content_distribution 	client-0 	0
scalar one_cache_scenario_network.content_distribution 	repo-0_card 	4987
scalar one_cache_scenario_network.content_distribution 	repo-1_card 	5013
scalar one_cache_scenario_network.statistics 	p_hit 	0.2255463919188
scalar one_cache_scenario_network.statistics 	interests 	74424.6
scalar one_cache_scenario_network.statistics 	data 	38425.6
scalar one_cache_scenario_network.statistics 	hdistance 	1.0674074279841
scalar one_cache_scenario_network.statistics 	avg_time 	0
scalar one_cache_scenario_network.statistics 	downloads 	179995
scalar one_cache_scenario_network.statistics 	total_cost 	45450
scalar one_cache_scenario_network.statistics 	interests_sent 	179995
scalar one_cache_scenario_network.node[0].core_layer 	interests[0] 	179995
scalar one_cache_scenario_network.node[0].core_layer 	data[0] 	96064
scalar one_cache_scenario_network.node[0].core_layer 	repo_int[0] 	96064
scalar one_cache_scenario_network.node[0].content_store 	p_hit[0] 	0.46629628600794
scalar one_cache_scenario_network.node[0].content_store 	hits[0] 	83931
scalar one_cache_scenario_network.node[0].content_store 	misses[0] 	96064
scalar one_cache_scenario_network.node[0].content_store 	decision_yes[0] 	886
scalar one_cache_scenario_network.node[0].content_store 	decision_no[0] 	95178
scalar one_cache_scenario_network.node[1].core_layer 	interests[1] 	51904
scalar one_cache_scenario_network.node[1].core_layer 	data[1] 	51904
scalar one_cache_scenario_network.node[1].content_store 	p_hit[1] 	0
scalar one_cache_scenario_network.node[1].content_store 	hits[1] 	0
scalar one_cache_scenario_network.node[1].content_store 	misses[1] 	51904
scalar one_cache_scenario_network.node[1].content_store 	decision_yes[1] 	0
scalar one_cache_scenario_network.node[1].content_store 	decision_no[1] 	51904
scalar one_cache_scenario_network.node[2].core_layer 	interests[2] 	44160
scalar one_cache_scenario_network.node[2].core_layer 	data[2] 	44160
scalar one_cache_scenario_network.node[2].content_store 	p_hit[2] 	0
scalar one_cache_scenario_network.node[2].content_store 	hits[2] 	0
scalar one_cache_scenario_network.node[2].content_store 	misses[2] 	44160
scalar one_cache_scenario_network.node[2].content_store 	decision_yes[2] 	0
scalar one_cache_scenario_network.node[2].content_store 	decision_no[2] 	44160
scalar one_cache_scenario_network.node[3].core_layer 	interests[3] 	51904
scalar one_cache_scenario_network.node[3].core_layer 	repo_load[3] 	51904
scalar one_cache_scenario_network.node[3].core_layer 	data[3] 	0
scalar one_cache_scenario_network.node[3].content_store 	p_hit[3] 	0
scalar one_cache_scenario_network.node[3].content_store 	hits[3] 	0
scalar one_cache_scenario_network.node[3].content_store 	misses[3] 	51904
scalar one_cache_scenario_network.node[3].content_store 	decision_yes[3] 	0
scalar one_cache_scenario_network.node[3].content_store 	decision_no[3] 	51904
scalar one_cache_scenario_network.node[4].core_layer 	interests[4] 	44160
scalar one_cache_scenario_network.node[4].core_layer 	repo_load[4] 	44160
scalar one_cache_scenario_network.node[4].core_layer 	data[4] 	0
scalar one_cache_scenario_network.node[4].content_store 	p_hit[4] 	0
scalar one_cache_scenario_network.node[4].content_store 	hits[4] 	0
scalar one_cache_scenario_network.node[4].content_store 	misses[4] 	44160
scalar one_cache_scenario_network.node[4].content_store 	decision_yes[4] 	0
scalar one_cache_scenario_network.node[4].content_store 	decision_no[4] 	44160
scalar one_cache_scenario_network.client[0] 	hdistance[0] 	1.0674074279841
scalar one_cache_scenario_network.client[0] 	downloads[0] 	179995
scalar one_cache_scenario_network.client[0] 	avg_time[0] 	0
scalar one_cache_scenario_network.client[0] 	interests_sent[0] 	179995
