version 2
run General-27-20140426-04:27:01-18455
attr D costprob0.02
attr F nrr
attr R lru
attr a 1
attr configname General
attr csize 100
attr ctlg 10^4
attr datetime 20140426-04:27:01
attr experiment General
attr inifile omnetpp.ini
attr iterationvars "$net=one_cache_scenario, $rep=5, $priceratiovalue=5, $a=1, $ctlg=10^4, $F=nrr, $ttl=1000, $D=costprob0.02, $R=lru, $csize=100"
attr iterationvars2 "$net=one_cache_scenario, $rep=5, $priceratiovalue=5, $a=1, $ctlg=10^4, $F=nrr, $ttl=1000, $D=costprob0.02, $R=lru, $csize=100, $repetition=0"
attr measurement "$net=one_cache_scenario, $rep=5, $priceratiovalue=5, $a=1, $ctlg=10^4, $F=nrr, $ttl=1000, $D=costprob0.02, $R=lru, $csize=100"
attr net one_cache_scenario
attr network networks.${net=one_cache_scenario}_network
attr priceratiovalue 5
attr processid 18455
attr rep 5
attr repetition 0
attr replication #0
attr resultdir results
attr runnumber 27
attr seedset 5
attr ttl 1000

scalar . 	a 	1
scalar . 	csize 	100
scalar . 	priceratiovalue 	5
scalar . 	rep 	5
scalar . 	ttl 	1000
scalar one_cache_scenario_network.content_distribution 	repo-0 	3
scalar one_cache_scenario_network.content_distribution 	repo-1 	4
scalar one_cache_scenario_network.content_distribution 	client-0 	0
scalar one_cache_scenario_network.content_distribution 	repo-0_card 	4945
scalar one_cache_scenario_network.content_distribution 	repo-1_card 	5055
scalar one_cache_scenario_network.statistics 	p_hit 	0.23556217780001
scalar one_cache_scenario_network.statistics 	interests 	73556.8
scalar one_cache_scenario_network.statistics 	data 	37486.4
scalar one_cache_scenario_network.statistics 	hdistance 	1.0392565649397
scalar one_cache_scenario_network.statistics 	avg_time 	0
scalar one_cache_scenario_network.statistics 	downloads 	180352
scalar one_cache_scenario_network.statistics 	total_cost 	43676
scalar one_cache_scenario_network.statistics 	interests_sent 	180352
scalar one_cache_scenario_network.node[0].core_layer 	interests[0] 	180352
scalar one_cache_scenario_network.node[0].core_layer 	data[0] 	93716
scalar one_cache_scenario_network.node[0].core_layer 	repo_int[0] 	93716
scalar one_cache_scenario_network.node[0].content_store 	p_hit[0] 	0.48037171753016
scalar one_cache_scenario_network.node[0].content_store 	hits[0] 	86636
scalar one_cache_scenario_network.node[0].content_store 	misses[0] 	93716
scalar one_cache_scenario_network.node[0].content_store 	decision_yes[0] 	866
scalar one_cache_scenario_network.node[0].content_store 	decision_no[0] 	92850
scalar one_cache_scenario_network.node[1].core_layer 	interests[1] 	51629
scalar one_cache_scenario_network.node[1].core_layer 	data[1] 	51629
scalar one_cache_scenario_network.node[1].content_store 	p_hit[1] 	0
scalar one_cache_scenario_network.node[1].content_store 	hits[1] 	0
scalar one_cache_scenario_network.node[1].content_store 	misses[1] 	51629
scalar one_cache_scenario_network.node[1].content_store 	decision_yes[1] 	0
scalar one_cache_scenario_network.node[1].content_store 	decision_no[1] 	51629
scalar one_cache_scenario_network.node[2].core_layer 	interests[2] 	42087
scalar one_cache_scenario_network.node[2].core_layer 	data[2] 	42087
scalar one_cache_scenario_network.node[2].content_store 	p_hit[2] 	0
scalar one_cache_scenario_network.node[2].content_store 	hits[2] 	0
scalar one_cache_scenario_network.node[2].content_store 	misses[2] 	42087
scalar one_cache_scenario_network.node[2].content_store 	decision_yes[2] 	0
scalar one_cache_scenario_network.node[2].content_store 	decision_no[2] 	42087
scalar one_cache_scenario_network.node[3].core_layer 	interests[3] 	51629
scalar one_cache_scenario_network.node[3].core_layer 	repo_load[3] 	51629
scalar one_cache_scenario_network.node[3].core_layer 	data[3] 	0
scalar one_cache_scenario_network.node[3].content_store 	p_hit[3] 	0
scalar one_cache_scenario_network.node[3].content_store 	hits[3] 	0
scalar one_cache_scenario_network.node[3].content_store 	misses[3] 	51629
scalar one_cache_scenario_network.node[3].content_store 	decision_yes[3] 	0
scalar one_cache_scenario_network.node[3].content_store 	decision_no[3] 	51629
scalar one_cache_scenario_network.node[4].core_layer 	interests[4] 	42087
scalar one_cache_scenario_network.node[4].core_layer 	repo_load[4] 	42087
scalar one_cache_scenario_network.node[4].core_layer 	data[4] 	0
scalar one_cache_scenario_network.node[4].content_store 	p_hit[4] 	0
scalar one_cache_scenario_network.node[4].content_store 	hits[4] 	0
scalar one_cache_scenario_network.node[4].content_store 	misses[4] 	42087
scalar one_cache_scenario_network.node[4].content_store 	decision_yes[4] 	0
scalar one_cache_scenario_network.node[4].content_store 	decision_no[4] 	42087
scalar one_cache_scenario_network.client[0] 	hdistance[0] 	1.0392565649397
scalar one_cache_scenario_network.client[0] 	downloads[0] 	180352
scalar one_cache_scenario_network.client[0] 	avg_time[0] 	0
scalar one_cache_scenario_network.client[0] 	interests_sent[0] 	180352
