version 2
run General-5652-20140425-08:25:33-18609
attr D fix0.0001
attr F nrr
attr R lru
attr a 0.8
attr configname General
attr csize 30
attr ctlg 10^3
attr datetime 20140425-08:25:33
attr experiment General
attr inifile omnetpp.ini
attr iterationvars "$net=one_cache_scenario, $rep=14, $priceratiovalue=5, $a=0.8, $ctlg=10^3, $F=nrr, $ttl=1000, $D=fix0.0001, $R=lru, $csize=30"
attr iterationvars2 "$net=one_cache_scenario, $rep=14, $priceratiovalue=5, $a=0.8, $ctlg=10^3, $F=nrr, $ttl=1000, $D=fix0.0001, $R=lru, $csize=30, $repetition=0"
attr measurement "$net=one_cache_scenario, $rep=14, $priceratiovalue=5, $a=0.8, $ctlg=10^3, $F=nrr, $ttl=1000, $D=fix0.0001, $R=lru, $csize=30"
attr net one_cache_scenario
attr network networks.${net=one_cache_scenario}_network
attr priceratiovalue 5
attr processid 18609
attr rep 14
attr repetition 0
attr replication #0
attr resultdir results
attr runnumber 5652
attr seedset 14
attr ttl 1000

scalar . 	a 	0.8
scalar . 	csize 	30
scalar . 	priceratiovalue 	5
scalar . 	rep 	14
scalar . 	ttl 	1000
scalar one_cache_scenario_network.content_distribution 	repo-0 	3
scalar one_cache_scenario_network.content_distribution 	repo-1 	4
scalar one_cache_scenario_network.content_distribution 	client-0 	0
scalar one_cache_scenario_network.content_distribution 	repo-0_card 	497
scalar one_cache_scenario_network.content_distribution 	repo-1_card 	503
scalar one_cache_scenario_network.statistics 	p_hit 	0.085788569047536
scalar one_cache_scenario_network.statistics 	interests 	92156.8
scalar one_cache_scenario_network.statistics 	data 	56167.2
scalar one_cache_scenario_network.statistics 	hdistance 	1.5606508546913
scalar one_cache_scenario_network.statistics 	avg_time 	0
scalar one_cache_scenario_network.statistics 	downloads 	179948
scalar one_cache_scenario_network.statistics 	total_cost 	69930
scalar one_cache_scenario_network.statistics 	interests_sent 	179948
scalar one_cache_scenario_network.node[0].core_layer 	interests[0] 	179948
scalar one_cache_scenario_network.node[0].core_layer 	data[0] 	140418
scalar one_cache_scenario_network.node[0].core_layer 	repo_int[0] 	140418
scalar one_cache_scenario_network.node[0].content_store 	p_hit[0] 	0.21967457265432
scalar one_cache_scenario_network.node[0].content_store 	hits[0] 	39530
scalar one_cache_scenario_network.node[0].content_store 	misses[0] 	140418
scalar one_cache_scenario_network.node[0].content_store 	decision_yes[0] 	14
scalar one_cache_scenario_network.node[0].content_store 	decision_no[0] 	140404
scalar one_cache_scenario_network.node[1].core_layer 	interests[1] 	70625
scalar one_cache_scenario_network.node[1].core_layer 	data[1] 	70625
scalar one_cache_scenario_network.node[1].content_store 	p_hit[1] 	0
scalar one_cache_scenario_network.node[1].content_store 	hits[1] 	0
scalar one_cache_scenario_network.node[1].content_store 	misses[1] 	70625
scalar one_cache_scenario_network.node[1].content_store 	decision_yes[1] 	0
scalar one_cache_scenario_network.node[1].content_store 	decision_no[1] 	70625
scalar one_cache_scenario_network.node[2].core_layer 	interests[2] 	69793
scalar one_cache_scenario_network.node[2].core_layer 	data[2] 	69793
scalar one_cache_scenario_network.node[2].content_store 	p_hit[2] 	0
scalar one_cache_scenario_network.node[2].content_store 	hits[2] 	0
scalar one_cache_scenario_network.node[2].content_store 	misses[2] 	69793
scalar one_cache_scenario_network.node[2].content_store 	decision_yes[2] 	0
scalar one_cache_scenario_network.node[2].content_store 	decision_no[2] 	69793
scalar one_cache_scenario_network.node[3].core_layer 	interests[3] 	70625
scalar one_cache_scenario_network.node[3].core_layer 	repo_load[3] 	70625
scalar one_cache_scenario_network.node[3].core_layer 	data[3] 	0
scalar one_cache_scenario_network.node[3].content_store 	p_hit[3] 	0
scalar one_cache_scenario_network.node[3].content_store 	hits[3] 	0
scalar one_cache_scenario_network.node[3].content_store 	misses[3] 	70625
scalar one_cache_scenario_network.node[3].content_store 	decision_yes[3] 	0
scalar one_cache_scenario_network.node[3].content_store 	decision_no[3] 	70625
scalar one_cache_scenario_network.node[4].core_layer 	interests[4] 	69793
scalar one_cache_scenario_network.node[4].core_layer 	repo_load[4] 	69793
scalar one_cache_scenario_network.node[4].core_layer 	data[4] 	0
scalar one_cache_scenario_network.node[4].content_store 	p_hit[4] 	0
scalar one_cache_scenario_network.node[4].content_store 	hits[4] 	0
scalar one_cache_scenario_network.node[4].content_store 	misses[4] 	69793
scalar one_cache_scenario_network.node[4].content_store 	decision_yes[4] 	0
scalar one_cache_scenario_network.node[4].content_store 	decision_no[4] 	69793
scalar one_cache_scenario_network.client[0] 	hdistance[0] 	1.5606508546913
scalar one_cache_scenario_network.client[0] 	downloads[0] 	179948
scalar one_cache_scenario_network.client[0] 	avg_time[0] 	0
scalar one_cache_scenario_network.client[0] 	interests_sent[0] 	179948
