version 2
run General-7-20140703-15:52:49-12430
attr D lce
attr F nrr
attr R lru
attr a 1
attr configname General
attr csize 1e3
attr ctlg 1e5
attr datetime 20140703-15:52:49
attr experiment General
attr inifile omnetpp.ini
attr iterationvars "$net=geant_cost, $rep=1, $priceratiovalue=2, $weights=0.333_0.333_0.334, $lambda=100, $a=1, $ctlg=1e5, $F=nrr, $ttl=1000, $D=lce, $xi=1, $R=lru, $csize=1e3, $pricebits=0, $window=60, $variance=0.05, $mytime=1800"
attr iterationvars2 "$net=geant_cost, $rep=1, $priceratiovalue=2, $weights=0.333_0.333_0.334, $lambda=100, $a=1, $ctlg=1e5, $F=nrr, $ttl=1000, $D=lce, $xi=1, $R=lru, $csize=1e3, $pricebits=0, $window=60, $variance=0.05, $mytime=1800, $repetition=0"
attr lambda 100
attr measurement "$net=geant_cost, $rep=1, $priceratiovalue=2, $weights=0.333_0.333_0.334, $lambda=100, $a=1, $ctlg=1e5, $F=nrr, $ttl=1000, $D=lce, $xi=1, $R=lru, $csize=1e3, $pricebits=0, $window=60, $variance=0.05, $mytime=1800"
attr mytime 1800
attr net geant_cost
attr network "networks.${net=geant_cost, abilene_cost}_network"
attr pricebits 0
attr priceratiovalue 2
attr processid 12430
attr rep 1
attr repetition 0
attr replication #0
attr resultdir results
attr runnumber 7
attr seedset 1
attr ttl 1000
attr variance 0.05
attr weights 0.333_0.333_0.334
attr window 60
attr xi 1

scalar . 	a 	1
scalar . 	csize 	1e3
scalar . 	ctlg 	1e5
scalar . 	lambda 	100
scalar . 	mytime 	1800
scalar . 	pricebits 	0
scalar . 	priceratiovalue 	2
scalar . 	rep 	1
scalar . 	ttl 	1000
scalar . 	variance 	0.05
scalar . 	window 	60
scalar . 	xi 	1
scalar geant_cost_network.content_distribution 	repo-0 	22
scalar geant_cost_network.content_distribution 	repo-1 	23
scalar geant_cost_network.content_distribution 	repo-2 	24
scalar geant_cost_network.content_distribution 	client-0 	20
scalar geant_cost_network.content_distribution 	client-1 	10
scalar geant_cost_network.content_distribution 	client-2 	12
scalar geant_cost_network.content_distribution 	client-3 	9
scalar geant_cost_network.content_distribution 	client-4 	5
scalar geant_cost_network.content_distribution 	repo-0_card 	33396
scalar geant_cost_network.content_distribution 	repo-1_card 	33039
scalar geant_cost_network.content_distribution 	repo-2_card 	33565
scalar geant_cost_network.statistics 	repo_popularity[0] 	0.28686251265602
scalar geant_cost_network.statistics 	repo_popularity[1] 	0.2886063426465
scalar geant_cost_network.statistics 	repo_popularity[2] 	0.42453114469748
scalar geant_cost_network.node[7].face$o[4].channel 	price[7] 	0
scalar geant_cost_network.node[7].face$o[4].channel 	represented_price[7] 	0
scalar geant_cost_network.node[8].face$o[3].channel 	price[8] 	0
scalar geant_cost_network.node[8].face$o[3].channel 	represented_price[8] 	0
scalar geant_cost_network.node[21].face$o[5].channel 	price[21] 	0
scalar geant_cost_network.node[21].face$o[5].channel 	represented_price[21] 	0
scalar geant_cost_network.node[22].face$o[1].channel 	price[22] 	0
scalar geant_cost_network.node[22].face$o[1].channel 	represented_price[22] 	0
scalar geant_cost_network.node[23].face$o[1].channel 	price[23] 	1
scalar geant_cost_network.node[23].face$o[1].channel 	represented_price[23] 	1
scalar geant_cost_network.node[24].face$o[1].channel 	price[24] 	2
scalar geant_cost_network.node[24].face$o[1].channel 	represented_price[24] 	2
scalar geant_cost_network.statistics 	p_hit 	0.12368483957411
scalar geant_cost_network.statistics 	interests 	1109780.96
scalar geant_cost_network.statistics 	data 	791918.36
scalar geant_cost_network.statistics 	hdistance 	3.0652074045832
scalar geant_cost_network.statistics 	avg_time 	0.007843421011
scalar geant_cost_network.statistics 	downloads 	7926191
scalar geant_cost_network.statistics 	total_cost 	4454435
scalar geant_cost_network.statistics 	total_replicas 	100000
scalar geant_cost_network.statistics 	inner_hit 	0.43495368708627
scalar geant_cost_network.statistics 	interests_sent 	7946547
scalar geant_cost_network.node[0].core_layer 	interests[0] 	0
scalar geant_cost_network.node[0].core_layer 	data[0] 	0
scalar geant_cost_network.node[0].core_layer 	repo_int[0] 	4478665
scalar geant_cost_network.node[0].content_store 	p_hit[0] 	-nan
scalar geant_cost_network.node[0].content_store 	hits[0] 	0
scalar geant_cost_network.node[0].content_store 	misses[0] 	0
scalar geant_cost_network.node[0].content_store 	decision_yes[0] 	0
scalar geant_cost_network.node[0].content_store 	decision_no[0] 	0
scalar geant_cost_network.node[0].content_store 	decision_ratio[0] 	0
scalar geant_cost_network.node[1].core_layer 	interests[1] 	0
scalar geant_cost_network.node[1].core_layer 	data[1] 	0
scalar geant_cost_network.node[1].content_store 	p_hit[1] 	-nan
scalar geant_cost_network.node[1].content_store 	hits[1] 	0
scalar geant_cost_network.node[1].content_store 	misses[1] 	0
scalar geant_cost_network.node[1].content_store 	decision_yes[1] 	0
scalar geant_cost_network.node[1].content_store 	decision_no[1] 	0
scalar geant_cost_network.node[1].content_store 	decision_ratio[1] 	0
scalar geant_cost_network.node[2].core_layer 	interests[2] 	0
scalar geant_cost_network.node[2].core_layer 	data[2] 	0
scalar geant_cost_network.node[2].content_store 	p_hit[2] 	-nan
scalar geant_cost_network.node[2].content_store 	hits[2] 	0
scalar geant_cost_network.node[2].content_store 	misses[2] 	0
scalar geant_cost_network.node[2].content_store 	decision_yes[2] 	0
scalar geant_cost_network.node[2].content_store 	decision_no[2] 	0
scalar geant_cost_network.node[2].content_store 	decision_ratio[2] 	0
scalar geant_cost_network.node[3].core_layer 	interests[3] 	1293807
scalar geant_cost_network.node[3].core_layer 	data[3] 	1259554
scalar geant_cost_network.node[3].content_store 	p_hit[3] 	0.026473809463081
scalar geant_cost_network.node[3].content_store 	hits[3] 	34252
scalar geant_cost_network.node[3].content_store 	misses[3] 	1259555
scalar geant_cost_network.node[3].content_store 	decision_yes[3] 	1259325
scalar geant_cost_network.node[3].content_store 	decision_no[3] 	0
scalar geant_cost_network.node[3].content_store 	decision_ratio[3] 	1
scalar geant_cost_network.node[4].core_layer 	interests[4] 	1928084
scalar geant_cost_network.node[4].core_layer 	data[4] 	1917769
scalar geant_cost_network.node[4].content_store 	p_hit[4] 	0.0053405349559459
scalar geant_cost_network.node[4].content_store 	hits[4] 	10297
scalar geant_cost_network.node[4].content_store 	misses[4] 	1917787
scalar geant_cost_network.node[4].content_store 	decision_yes[4] 	1917582
scalar geant_cost_network.node[4].content_store 	decision_no[4] 	0
scalar geant_cost_network.node[4].content_store 	decision_ratio[4] 	1
scalar geant_cost_network.node[5].core_layer 	interests[5] 	1623153
scalar geant_cost_network.node[5].core_layer 	data[5] 	1250898
scalar geant_cost_network.node[5].content_store 	p_hit[5] 	0.22688557394158
scalar geant_cost_network.node[5].content_store 	hits[5] 	368270
scalar geant_cost_network.node[5].content_store 	misses[5] 	1254883
scalar geant_cost_network.node[5].content_store 	decision_yes[5] 	1250898
scalar geant_cost_network.node[5].content_store 	decision_no[5] 	0
scalar geant_cost_network.node[5].content_store 	decision_ratio[5] 	1
scalar geant_cost_network.node[6].core_layer 	interests[6] 	635223
scalar geant_cost_network.node[6].core_layer 	data[6] 	603698
scalar geant_cost_network.node[6].content_store 	p_hit[6] 	0.049626666540727
scalar geant_cost_network.node[6].content_store 	hits[6] 	31524
scalar geant_cost_network.node[6].content_store 	misses[6] 	603699
scalar geant_cost_network.node[6].content_store 	decision_yes[6] 	603698
scalar geant_cost_network.node[6].content_store 	decision_no[6] 	0
scalar geant_cost_network.node[6].content_store 	decision_ratio[6] 	1
scalar geant_cost_network.node[7].core_layer 	interests[7] 	2139357
scalar geant_cost_network.node[7].core_layer 	data[7] 	2123536
scalar geant_cost_network.node[7].content_store 	p_hit[7] 	0.0073849292100383
scalar geant_cost_network.node[7].content_store 	hits[7] 	15799
scalar geant_cost_network.node[7].content_store 	misses[7] 	2123558
scalar geant_cost_network.node[7].content_store 	decision_yes[7] 	2123412
scalar geant_cost_network.node[7].content_store 	decision_no[7] 	0
scalar geant_cost_network.node[7].content_store 	decision_ratio[7] 	1
scalar geant_cost_network.node[8].core_layer 	interests[8] 	2128704
scalar geant_cost_network.node[8].core_layer 	data[8] 	2110389
scalar geant_cost_network.node[8].content_store 	p_hit[8] 	0.0086028870148222
scalar geant_cost_network.node[8].content_store 	hits[8] 	18313
scalar geant_cost_network.node[8].content_store 	misses[8] 	2110391
scalar geant_cost_network.node[8].content_store 	decision_yes[8] 	2110299
scalar geant_cost_network.node[8].content_store 	decision_no[8] 	0
scalar geant_cost_network.node[8].content_store 	decision_ratio[8] 	1
scalar geant_cost_network.node[9].core_layer 	interests[9] 	3151105
scalar geant_cost_network.node[9].core_layer 	data[9] 	2781135
scalar geant_cost_network.node[9].content_store 	p_hit[9] 	0.11479623814503
scalar geant_cost_network.node[9].content_store 	hits[9] 	361735
scalar geant_cost_network.node[9].content_store 	misses[9] 	2789370
scalar geant_cost_network.node[9].content_store 	decision_yes[9] 	2780732
scalar geant_cost_network.node[9].content_store 	decision_no[9] 	0
scalar geant_cost_network.node[9].content_store 	decision_ratio[9] 	1
scalar geant_cost_network.node[10].core_layer 	interests[10] 	1681205
scalar geant_cost_network.node[10].core_layer 	data[10] 	1227182
scalar geant_cost_network.node[10].content_store 	p_hit[10] 	0.26827305414866
scalar geant_cost_network.node[10].content_store 	hits[10] 	451022
scalar geant_cost_network.node[10].content_store 	misses[10] 	1230183
scalar geant_cost_network.node[10].content_store 	decision_yes[10] 	1227182
scalar geant_cost_network.node[10].content_store 	decision_no[10] 	0
scalar geant_cost_network.node[10].content_store 	decision_ratio[10] 	1
scalar geant_cost_network.node[11].core_layer 	interests[11] 	0
scalar geant_cost_network.node[11].core_layer 	data[11] 	0
scalar geant_cost_network.node[11].content_store 	p_hit[11] 	-nan
scalar geant_cost_network.node[11].content_store 	hits[11] 	0
scalar geant_cost_network.node[11].content_store 	misses[11] 	0
scalar geant_cost_network.node[11].content_store 	decision_yes[11] 	0
scalar geant_cost_network.node[11].content_store 	decision_no[11] 	0
scalar geant_cost_network.node[11].content_store 	decision_ratio[11] 	0
scalar geant_cost_network.node[12].core_layer 	interests[12] 	2779591
scalar geant_cost_network.node[12].core_layer 	data[12] 	2297883
scalar geant_cost_network.node[12].content_store 	p_hit[12] 	0.1675476715819
scalar geant_cost_network.node[12].content_store 	hits[12] 	465714
scalar geant_cost_network.node[12].content_store 	misses[12] 	2313877
scalar geant_cost_network.node[12].content_store 	decision_yes[12] 	2297824
scalar geant_cost_network.node[12].content_store 	decision_no[12] 	0
scalar geant_cost_network.node[12].content_store 	decision_ratio[12] 	1
scalar geant_cost_network.node[13].core_layer 	interests[13] 	492814
scalar geant_cost_network.node[13].core_layer 	data[13] 	9972
scalar geant_cost_network.node[13].content_store 	p_hit[13] 	0.97976315607917
scalar geant_cost_network.node[13].content_store 	hits[13] 	482841
scalar geant_cost_network.node[13].content_store 	misses[13] 	9973
scalar geant_cost_network.node[13].content_store 	decision_yes[13] 	9972
scalar geant_cost_network.node[13].content_store 	decision_no[13] 	0
scalar geant_cost_network.node[13].content_store 	decision_ratio[13] 	1
scalar geant_cost_network.node[14].core_layer 	interests[14] 	785261
scalar geant_cost_network.node[14].core_layer 	data[14] 	583424
scalar geant_cost_network.node[14].content_store 	p_hit[14] 	0.25472295198666
scalar geant_cost_network.node[14].content_store 	hits[14] 	200024
scalar geant_cost_network.node[14].content_store 	misses[14] 	585237
scalar geant_cost_network.node[14].content_store 	decision_yes[14] 	583376
scalar geant_cost_network.node[14].content_store 	decision_no[14] 	0
scalar geant_cost_network.node[14].content_store 	decision_ratio[14] 	1
scalar geant_cost_network.node[15].core_layer 	interests[15] 	576974
scalar geant_cost_network.node[15].core_layer 	data[15] 	142
scalar geant_cost_network.node[15].content_store 	p_hit[15] 	0.99975388839012
scalar geant_cost_network.node[15].content_store 	hits[15] 	576832
scalar geant_cost_network.node[15].content_store 	misses[15] 	142
scalar geant_cost_network.node[15].content_store 	decision_yes[15] 	142
scalar geant_cost_network.node[15].content_store 	decision_no[15] 	0
scalar geant_cost_network.node[15].content_store 	decision_ratio[15] 	1
scalar geant_cost_network.node[16].core_layer 	interests[16] 	0
scalar geant_cost_network.node[16].core_layer 	data[16] 	0
scalar geant_cost_network.node[16].content_store 	p_hit[16] 	-nan
scalar geant_cost_network.node[16].content_store 	hits[16] 	0
scalar geant_cost_network.node[16].content_store 	misses[16] 	0
scalar geant_cost_network.node[16].content_store 	decision_yes[16] 	0
scalar geant_cost_network.node[16].content_store 	decision_no[16] 	0
scalar geant_cost_network.node[16].content_store 	decision_ratio[16] 	0
scalar geant_cost_network.node[17].core_layer 	interests[17] 	0
scalar geant_cost_network.node[17].core_layer 	data[17] 	0
scalar geant_cost_network.node[17].content_store 	p_hit[17] 	-nan
scalar geant_cost_network.node[17].content_store 	hits[17] 	0
scalar geant_cost_network.node[17].content_store 	misses[17] 	0
scalar geant_cost_network.node[17].content_store 	decision_yes[17] 	0
scalar geant_cost_network.node[17].content_store 	decision_no[17] 	0
scalar geant_cost_network.node[17].content_store 	decision_ratio[17] 	0
scalar geant_cost_network.node[18].core_layer 	interests[18] 	960081
scalar geant_cost_network.node[18].core_layer 	data[18] 	907790
scalar geant_cost_network.node[18].content_store 	p_hit[18] 	0.054463113008173
scalar geant_cost_network.node[18].content_store 	hits[18] 	52289
scalar geant_cost_network.node[18].content_store 	misses[18] 	907792
scalar geant_cost_network.node[18].content_store 	decision_yes[18] 	907789
scalar geant_cost_network.node[18].content_store 	decision_no[18] 	0
scalar geant_cost_network.node[18].content_store 	decision_ratio[18] 	1
scalar geant_cost_network.node[19].core_layer 	interests[19] 	0
scalar geant_cost_network.node[19].core_layer 	data[19] 	0
scalar geant_cost_network.node[19].content_store 	p_hit[19] 	-nan
scalar geant_cost_network.node[19].content_store 	hits[19] 	0
scalar geant_cost_network.node[19].content_store 	misses[19] 	0
scalar geant_cost_network.node[19].content_store 	decision_yes[19] 	0
scalar geant_cost_network.node[19].content_store 	decision_no[19] 	0
scalar geant_cost_network.node[19].content_store 	decision_ratio[19] 	0
scalar geant_cost_network.node[20].core_layer 	interests[20] 	1591847
scalar geant_cost_network.node[20].core_layer 	data[20] 	1239903
scalar geant_cost_network.node[20].content_store 	p_hit[20] 	0.21905120278519
scalar geant_cost_network.node[20].content_store 	hits[20] 	348696
scalar geant_cost_network.node[20].content_store 	misses[20] 	1243151
scalar geant_cost_network.node[20].content_store 	decision_yes[20] 	1239903
scalar geant_cost_network.node[20].content_store 	decision_no[20] 	0
scalar geant_cost_network.node[20].content_store 	decision_ratio[20] 	1
scalar geant_cost_network.node[21].core_layer 	interests[21] 	1498653
scalar geant_cost_network.node[21].core_layer 	data[21] 	1484684
scalar geant_cost_network.node[21].content_store 	p_hit[21] 	0.0093210369578548
scalar geant_cost_network.node[21].content_store 	hits[21] 	13969
scalar geant_cost_network.node[21].content_store 	misses[21] 	1484684
scalar geant_cost_network.node[21].content_store 	decision_yes[21] 	1484684
scalar geant_cost_network.node[21].content_store 	decision_no[21] 	0
scalar geant_cost_network.node[21].content_store 	decision_ratio[21] 	1
scalar geant_cost_network.node[22].core_layer 	interests[22] 	1508914
scalar geant_cost_network.node[22].core_layer 	repo_load[22] 	1508914
scalar geant_cost_network.node[22].core_layer 	data[22] 	0
scalar geant_cost_network.node[22].content_store 	p_hit[22] 	0
scalar geant_cost_network.node[22].content_store 	hits[22] 	0
scalar geant_cost_network.node[22].content_store 	misses[22] 	1508914
scalar geant_cost_network.node[22].content_store 	decision_yes[22] 	0
scalar geant_cost_network.node[22].content_store 	decision_no[22] 	1508914
scalar geant_cost_network.node[22].content_store 	decision_ratio[22] 	0
scalar geant_cost_network.node[23].core_layer 	interests[23] 	1485067
scalar geant_cost_network.node[23].core_layer 	repo_load[23] 	1485067
scalar geant_cost_network.node[23].core_layer 	data[23] 	0
scalar geant_cost_network.node[23].content_store 	p_hit[23] 	0
scalar geant_cost_network.node[23].content_store 	hits[23] 	0
scalar geant_cost_network.node[23].content_store 	misses[23] 	1485067
scalar geant_cost_network.node[23].content_store 	decision_yes[23] 	0
scalar geant_cost_network.node[23].content_store 	decision_no[23] 	1485067
scalar geant_cost_network.node[23].content_store 	decision_ratio[23] 	0
scalar geant_cost_network.node[24].core_layer 	interests[24] 	1484684
scalar geant_cost_network.node[24].core_layer 	repo_load[24] 	1484684
scalar geant_cost_network.node[24].core_layer 	data[24] 	0
scalar geant_cost_network.node[24].content_store 	p_hit[24] 	0
scalar geant_cost_network.node[24].content_store 	hits[24] 	0
scalar geant_cost_network.node[24].content_store 	misses[24] 	1484684
scalar geant_cost_network.node[24].content_store 	decision_yes[24] 	0
scalar geant_cost_network.node[24].content_store 	decision_no[24] 	1484684
scalar geant_cost_network.node[24].content_store 	decision_ratio[24] 	0
scalar geant_cost_network.client[5] 	hdistance[5] 	2.8101267019667
scalar geant_cost_network.client[5] 	downloads[5] 	1586400
scalar geant_cost_network.client[5] 	avg_time[5] 	0.010034357363
scalar geant_cost_network.client[5] 	interests_sent[5] 	1590370
scalar geant_cost_network.client[9] 	hdistance[9] 	2.8657752330677
scalar geant_cost_network.client[9] 	downloads[9] 	1585162
scalar geant_cost_network.client[9] 	avg_time[9] 	0.006256010269
scalar geant_cost_network.client[9] 	interests_sent[9] 	1588352
scalar geant_cost_network.client[10] 	hdistance[10] 	3.5724253281625
scalar geant_cost_network.client[10] 	downloads[10] 	1585571
scalar geant_cost_network.client[10] 	avg_time[10] 	0.007664741538
scalar geant_cost_network.client[10] 	interests_sent[10] 	1588572
scalar geant_cost_network.client[12] 	hdistance[12] 	2.890035072589
scalar geant_cost_network.client[12] 	downloads[12] 	1581577
scalar geant_cost_network.client[12] 	avg_time[12] 	0.007663823921
scalar geant_cost_network.client[12] 	interests_sent[12] 	1588524
scalar geant_cost_network.client[20] 	hdistance[20] 	3.1876746871301
scalar geant_cost_network.client[20] 	downloads[20] 	1587481
scalar geant_cost_network.client[20] 	avg_time[20] 	0.007598171966
scalar geant_cost_network.client[20] 	interests_sent[20] 	1590729
