version 2
run General-3-20140626-12:33:05-15737
attr D costprobprodcorr0.01
attr F spr
attr R lru
attr a 1
attr configname General
attr csize 1e3
attr ctlg 1e5
attr datetime 20140626-12:33:05
attr experiment General
attr inifile omnetpp.ini
attr iterationvars "$net=abilene_cost, $rep=1, $priceratiovalue=10, $weights=0.333_0.333_0.334, $lambda=100, $a=1, $ctlg=1e5, $F=spr, $ttl=1000, $D=costprobprodcorr0.01, $xi=0.25, $R=lru, $csize=1e3, $pricebits=0, $mytime=1800"
attr iterationvars2 "$net=abilene_cost, $rep=1, $priceratiovalue=10, $weights=0.333_0.333_0.334, $lambda=100, $a=1, $ctlg=1e5, $F=spr, $ttl=1000, $D=costprobprodcorr0.01, $xi=0.25, $R=lru, $csize=1e3, $pricebits=0, $mytime=1800, $repetition=0"
attr lambda 100
attr measurement "$net=abilene_cost, $rep=1, $priceratiovalue=10, $weights=0.333_0.333_0.334, $lambda=100, $a=1, $ctlg=1e5, $F=spr, $ttl=1000, $D=costprobprodcorr0.01, $xi=0.25, $R=lru, $csize=1e3, $pricebits=0, $mytime=1800"
attr mytime 1800
attr net abilene_cost
attr network networks.${net=abilene_cost}_network
attr pricebits 0
attr priceratiovalue 10
attr processid 15737
attr rep 1
attr repetition 0
attr replication #0
attr resultdir results
attr runnumber 3
attr seedset 1
attr ttl 1000
attr weights 0.333_0.333_0.334
attr xi 0.25

scalar . 	a 	1
scalar . 	csize 	1e3
scalar . 	ctlg 	1e5
scalar . 	lambda 	100
scalar . 	mytime 	1800
scalar . 	pricebits 	0
scalar . 	priceratiovalue 	10
scalar . 	rep 	1
scalar . 	ttl 	1000
scalar . 	xi 	0.25
scalar abilene_cost_network.content_distribution 	repo-0 	11
scalar abilene_cost_network.content_distribution 	repo-1 	12
scalar abilene_cost_network.content_distribution 	repo-2 	13
scalar abilene_cost_network.content_distribution 	client-0 	5
scalar abilene_cost_network.content_distribution 	client-1 	0
scalar abilene_cost_network.content_distribution 	client-2 	9
scalar abilene_cost_network.content_distribution 	repo-0_card 	33396
scalar abilene_cost_network.content_distribution 	repo-1_card 	33039
scalar abilene_cost_network.content_distribution 	repo-2_card 	33565
scalar abilene_cost_network.statistics 	repo_popularity[0] 	0.28686251265602
scalar abilene_cost_network.statistics 	repo_popularity[1] 	0.2886063426465
scalar abilene_cost_network.statistics 	repo_popularity[2] 	0.42453114469748
scalar abilene_cost_network.statistics 	stabilization_time 	562.5
scalar abilene_cost_network.node[1].face$o[4].channel 	price[1] 	0
scalar abilene_cost_network.node[1].face$o[4].channel 	represented_price[1] 	0
scalar abilene_cost_network.node[7].face$o[4].channel 	price[7] 	0
scalar abilene_cost_network.node[7].face$o[4].channel 	represented_price[7] 	0
scalar abilene_cost_network.node[10].face$o[4].channel 	price[10] 	0
scalar abilene_cost_network.node[10].face$o[4].channel 	represented_price[10] 	0
scalar abilene_cost_network.node[11].face$o[1].channel 	price[11] 	0
scalar abilene_cost_network.node[11].face$o[1].channel 	represented_price[11] 	0
scalar abilene_cost_network.node[12].face$o[1].channel 	price[12] 	1
scalar abilene_cost_network.node[12].face$o[1].channel 	represented_price[12] 	1
scalar abilene_cost_network.node[13].face$o[1].channel 	price[13] 	10
scalar abilene_cost_network.node[13].face$o[1].channel 	represented_price[13] 	10
scalar abilene_cost_network.statistics 	p_hit 	0.10260399857483
scalar abilene_cost_network.statistics 	interests 	144744.42857143
scalar abilene_cost_network.statistics 	data 	106220.21428571
scalar abilene_cost_network.statistics 	hdistance 	3.4026015896946
scalar abilene_cost_network.statistics 	avg_time 	0.014076834204
scalar abilene_cost_network.statistics 	downloads 	532261
scalar abilene_cost_network.statistics 	total_cost 	958492
scalar abilene_cost_network.statistics 	total_replicas 	100000
scalar abilene_cost_network.statistics 	inner_hit 	0.39063166378901
scalar abilene_cost_network.statistics 	interests_sent 	539339
scalar abilene_cost_network.node[0].core_layer 	interests[0] 	180234
scalar abilene_cost_network.node[0].core_layer 	data[0] 	170567
scalar abilene_cost_network.node[0].core_layer 	repo_int[0] 	324343
scalar abilene_cost_network.node[0].content_store 	p_hit[0] 	0.041085477767791
scalar abilene_cost_network.node[0].content_store 	hits[0] 	7405
scalar abilene_cost_network.node[0].content_store 	misses[0] 	172829
scalar abilene_cost_network.node[0].content_store 	decision_yes[0] 	885
scalar abilene_cost_network.node[0].content_store 	decision_no[0] 	169682
scalar abilene_cost_network.node[0].content_store 	decision_ratio[0] 	0.0051885769228514
scalar abilene_cost_network.node[0].content_store 	correction_factor[0] 	0.010788122829233
scalar abilene_cost_network.node[0].content_store 	xi[0] 	0.25
scalar abilene_cost_network.node[1].core_layer 	interests[1] 	281479
scalar abilene_cost_network.node[1].core_layer 	data[1] 	188124
scalar abilene_cost_network.node[1].content_store 	p_hit[1] 	0.33166239755008
scalar abilene_cost_network.node[1].content_store 	hits[1] 	93356
scalar abilene_cost_network.node[1].content_store 	misses[1] 	188123
scalar abilene_cost_network.node[1].content_store 	decision_yes[1] 	1987
scalar abilene_cost_network.node[1].content_store 	decision_no[1] 	186137
scalar abilene_cost_network.node[1].content_store 	decision_ratio[1] 	0.010562182390338
scalar abilene_cost_network.node[1].content_store 	correction_factor[1] 	0.010788122829233
scalar abilene_cost_network.node[1].content_store 	xi[1] 	0.25
scalar abilene_cost_network.node[2].core_layer 	interests[2] 	152789
scalar abilene_cost_network.node[2].core_layer 	data[2] 	143351
scalar abilene_cost_network.node[2].content_store 	p_hit[2] 	0.061771462605292
scalar abilene_cost_network.node[2].content_store 	hits[2] 	9438
scalar abilene_cost_network.node[2].content_store 	misses[2] 	143351
scalar abilene_cost_network.node[2].content_store 	decision_yes[2] 	831
scalar abilene_cost_network.node[2].content_store 	decision_no[2] 	142520
scalar abilene_cost_network.node[2].content_store 	decision_ratio[2] 	0.0057969599095925
scalar abilene_cost_network.node[2].content_store 	correction_factor[2] 	0.010788122829233
scalar abilene_cost_network.node[2].content_store 	xi[2] 	0.25
scalar abilene_cost_network.node[3].core_layer 	interests[3] 	165098
scalar abilene_cost_network.node[3].core_layer 	data[3] 	145561
scalar abilene_cost_network.node[3].content_store 	p_hit[3] 	0.11833577632679
scalar abilene_cost_network.node[3].content_store 	hits[3] 	19537
scalar abilene_cost_network.node[3].content_store 	misses[3] 	145561
scalar abilene_cost_network.node[3].content_store 	decision_yes[3] 	785
scalar abilene_cost_network.node[3].content_store 	decision_no[3] 	144776
scalar abilene_cost_network.node[3].content_store 	decision_ratio[3] 	0.0053929280507828
scalar abilene_cost_network.node[3].content_store 	correction_factor[3] 	0.010788122829233
scalar abilene_cost_network.node[3].content_store 	xi[3] 	0.25
scalar abilene_cost_network.node[4].core_layer 	interests[4] 	121450
scalar abilene_cost_network.node[4].core_layer 	data[4] 	118827
scalar abilene_cost_network.node[4].content_store 	p_hit[4] 	0.021597365170852
scalar abilene_cost_network.node[4].content_store 	hits[4] 	2623
scalar abilene_cost_network.node[4].content_store 	misses[4] 	118827
scalar abilene_cost_network.node[4].content_store 	decision_yes[4] 	516
scalar abilene_cost_network.node[4].content_store 	decision_no[4] 	118311
scalar abilene_cost_network.node[4].content_store 	decision_ratio[4] 	0.0043424474235654
scalar abilene_cost_network.node[4].content_store 	correction_factor[4] 	0.010788122829233
scalar abilene_cost_network.node[4].content_store 	xi[4] 	0.25
scalar abilene_cost_network.node[5].core_layer 	interests[5] 	179882
scalar abilene_cost_network.node[5].core_layer 	data[5] 	167303
scalar abilene_cost_network.node[5].content_store 	p_hit[5] 	0.057031831978742
scalar abilene_cost_network.node[5].content_store 	hits[5] 	10259
scalar abilene_cost_network.node[5].content_store 	misses[5] 	169623
scalar abilene_cost_network.node[5].content_store 	decision_yes[5] 	850
scalar abilene_cost_network.node[5].content_store 	decision_no[5] 	166453
scalar abilene_cost_network.node[5].content_store 	decision_ratio[5] 	0.0050806022605691
scalar abilene_cost_network.node[5].content_store 	correction_factor[5] 	0.010788122829233
scalar abilene_cost_network.node[5].content_store 	xi[5] 	0.25
scalar abilene_cost_network.node[6].core_layer 	interests[6] 	45853
scalar abilene_cost_network.node[6].core_layer 	data[6] 	41255
scalar abilene_cost_network.node[6].content_store 	p_hit[6] 	0.1002769720629
scalar abilene_cost_network.node[6].content_store 	hits[6] 	4598
scalar abilene_cost_network.node[6].content_store 	misses[6] 	41255
scalar abilene_cost_network.node[6].content_store 	decision_yes[6] 	277
scalar abilene_cost_network.node[6].content_store 	decision_no[6] 	40978
scalar abilene_cost_network.node[6].content_store 	decision_ratio[6] 	0.0067143376560417
scalar abilene_cost_network.node[6].content_store 	correction_factor[6] 	0.010788122829233
scalar abilene_cost_network.node[6].content_store 	xi[6] 	0.25
scalar abilene_cost_network.node[7].core_layer 	interests[7] 	125359
scalar abilene_cost_network.node[7].core_layer 	data[7] 	82342
scalar abilene_cost_network.node[7].content_store 	p_hit[7] 	0.34315047184486
scalar abilene_cost_network.node[7].content_store 	hits[7] 	43017
scalar abilene_cost_network.node[7].content_store 	misses[7] 	82342
scalar abilene_cost_network.node[7].content_store 	decision_yes[7] 	885
scalar abilene_cost_network.node[7].content_store 	decision_no[7] 	81457
scalar abilene_cost_network.node[7].content_store 	decision_ratio[7] 	0.010747856500935
scalar abilene_cost_network.node[7].content_store 	correction_factor[7] 	0.010788122829233
scalar abilene_cost_network.node[7].content_store 	xi[7] 	0.25
scalar abilene_cost_network.node[8].core_layer 	interests[8] 	45611
scalar abilene_cost_network.node[8].core_layer 	data[8] 	42099
scalar abilene_cost_network.node[8].content_store 	p_hit[8] 	0.07699896954682
scalar abilene_cost_network.node[8].content_store 	hits[8] 	3512
scalar abilene_cost_network.node[8].content_store 	misses[8] 	42099
scalar abilene_cost_network.node[8].content_store 	decision_yes[8] 	298
scalar abilene_cost_network.node[8].content_store 	decision_no[8] 	41801
scalar abilene_cost_network.node[8].content_store 	decision_ratio[8] 	0.007078552934749
scalar abilene_cost_network.node[8].content_store 	correction_factor[8] 	0.010788122829233
scalar abilene_cost_network.node[8].content_store 	xi[8] 	0.25
scalar abilene_cost_network.node[9].core_layer 	interests[9] 	179223
scalar abilene_cost_network.node[9].core_layer 	data[9] 	167831
scalar abilene_cost_network.node[9].content_store 	p_hit[9] 	0.049636486388466
scalar abilene_cost_network.node[9].content_store 	hits[9] 	8896
scalar abilene_cost_network.node[9].content_store 	misses[9] 	170327
scalar abilene_cost_network.node[9].content_store 	decision_yes[9] 	848
scalar abilene_cost_network.node[9].content_store 	decision_no[9] 	166983
scalar abilene_cost_network.node[9].content_store 	decision_ratio[9] 	0.0050527018250502
scalar abilene_cost_network.node[9].content_store 	correction_factor[9] 	0.010788122829233
scalar abilene_cost_network.node[9].content_store 	xi[9] 	0.25
scalar abilene_cost_network.node[10].core_layer 	interests[10] 	225101
scalar abilene_cost_network.node[10].core_layer 	data[10] 	219823
scalar abilene_cost_network.node[10].content_store 	p_hit[10] 	0.023447252566626
scalar abilene_cost_network.node[10].content_store 	hits[10] 	5278
scalar abilene_cost_network.node[10].content_store 	misses[10] 	219823
scalar abilene_cost_network.node[10].content_store 	decision_yes[10] 	588
scalar abilene_cost_network.node[10].content_store 	decision_no[10] 	219235
scalar abilene_cost_network.node[10].content_store 	decision_ratio[10] 	0.0026748793347375
scalar abilene_cost_network.node[10].content_store 	correction_factor[10] 	0.010788122829233
scalar abilene_cost_network.node[10].content_store 	xi[10] 	0.25
scalar abilene_cost_network.node[11].core_layer 	interests[11] 	154386
scalar abilene_cost_network.node[11].core_layer 	repo_load[11] 	154386
scalar abilene_cost_network.node[11].core_layer 	data[11] 	0
scalar abilene_cost_network.node[11].content_store 	p_hit[11] 	0
scalar abilene_cost_network.node[11].content_store 	hits[11] 	0
scalar abilene_cost_network.node[11].content_store 	misses[11] 	154386
scalar abilene_cost_network.node[11].content_store 	decision_yes[11] 	0
scalar abilene_cost_network.node[11].content_store 	decision_no[11] 	154386
scalar abilene_cost_network.node[11].content_store 	decision_ratio[11] 	0
scalar abilene_cost_network.node[12].core_layer 	interests[12] 	82342
scalar abilene_cost_network.node[12].core_layer 	repo_load[12] 	82342
scalar abilene_cost_network.node[12].core_layer 	data[12] 	0
scalar abilene_cost_network.node[12].content_store 	p_hit[12] 	0
scalar abilene_cost_network.node[12].content_store 	hits[12] 	0
scalar abilene_cost_network.node[12].content_store 	misses[12] 	82342
scalar abilene_cost_network.node[12].content_store 	decision_yes[12] 	0
scalar abilene_cost_network.node[12].content_store 	decision_no[12] 	82342
scalar abilene_cost_network.node[12].content_store 	decision_ratio[12] 	0
scalar abilene_cost_network.node[13].core_layer 	interests[13] 	87615
scalar abilene_cost_network.node[13].core_layer 	repo_load[13] 	87615
scalar abilene_cost_network.node[13].core_layer 	data[13] 	0
scalar abilene_cost_network.node[13].content_store 	p_hit[13] 	0
scalar abilene_cost_network.node[13].content_store 	hits[13] 	0
scalar abilene_cost_network.node[13].content_store 	misses[13] 	87615
scalar abilene_cost_network.node[13].content_store 	decision_yes[13] 	0
scalar abilene_cost_network.node[13].content_store 	decision_no[13] 	87615
scalar abilene_cost_network.node[13].content_store 	decision_ratio[13] 	0
scalar abilene_cost_network.client[0] 	hdistance[0] 	2.9754399568472
scalar abilene_cost_network.client[0] 	downloads[0] 	177972
scalar abilene_cost_network.client[0] 	avg_time[0] 	0.013447950971
scalar abilene_cost_network.client[0] 	interests_sent[0] 	180234
scalar abilene_cost_network.client[5] 	hdistance[5] 	4.4573219495161
scalar abilene_cost_network.client[5] 	downloads[5] 	177562
scalar abilene_cost_network.client[5] 	avg_time[5] 	0.017207755068
scalar abilene_cost_network.client[5] 	interests_sent[5] 	179882
scalar abilene_cost_network.client[9] 	hdistance[9] 	2.7750428627204
scalar abilene_cost_network.client[9] 	downloads[9] 	176727
scalar abilene_cost_network.client[9] 	avg_time[9] 	0.011574796575
scalar abilene_cost_network.client[9] 	interests_sent[9] 	179223
