version 2
run General-4-20140429-10:17:14-16702
attr D costprob0.02
attr F nrr
attr R lru
attr a 0.8
attr configname General
attr csize 1000
attr ctlg 10^5
attr datetime 20140429-10:17:14
attr experiment General
attr inifile omnetpp.ini
attr iterationvars "$net=one_cache_scenario_with_free_link, $rep=2, $priceratiovalue=1, $a=0.8, $ctlg=10^5, $F=nrr, $ttl=1000, $D=costprob0.02, $xi=1, $R=lru, $csize=1000"
attr iterationvars2 "$net=one_cache_scenario_with_free_link, $rep=2, $priceratiovalue=1, $a=0.8, $ctlg=10^5, $F=nrr, $ttl=1000, $D=costprob0.02, $xi=1, $R=lru, $csize=1000, $repetition=0"
attr measurement "$net=one_cache_scenario_with_free_link, $rep=2, $priceratiovalue=1, $a=0.8, $ctlg=10^5, $F=nrr, $ttl=1000, $D=costprob0.02, $xi=1, $R=lru, $csize=1000"
attr net one_cache_scenario_with_free_link
attr network networks.${net=one_cache_scenario_with_free_link}_network
attr priceratiovalue 1
attr processid 16702
attr rep 2
attr repetition 0
attr replication #0
attr resultdir results
attr runnumber 4
attr seedset 2
attr ttl 1000
attr xi 1

scalar . 	a 	0.8
scalar . 	csize 	1000
scalar . 	priceratiovalue 	1
scalar . 	rep 	2
scalar . 	ttl 	1000
scalar . 	xi 	1
scalar one_cache_scenario_with_free_link_network.content_distribution 	repo-0 	3
scalar one_cache_scenario_with_free_link_network.content_distribution 	repo-1 	4
scalar one_cache_scenario_with_free_link_network.content_distribution 	client-0 	0
scalar one_cache_scenario_with_free_link_network.content_distribution 	repo-0_card 	50289
scalar one_cache_scenario_with_free_link_network.content_distribution 	repo-1_card 	49711
scalar one_cache_scenario_with_free_link_network.statistics 	p_hit 	0.057647183085465
scalar one_cache_scenario_with_free_link_network.statistics 	interests 	96570.2
scalar one_cache_scenario_with_free_link_network.statistics 	data 	60668.8
scalar one_cache_scenario_with_free_link_network.statistics 	hdistance 	1.6898728183302
scalar one_cache_scenario_with_free_link_network.statistics 	avg_time 	0
scalar one_cache_scenario_with_free_link_network.statistics 	downloads 	179507
scalar one_cache_scenario_with_free_link_network.statistics 	total_cost 	63081
scalar one_cache_scenario_with_free_link_network.statistics 	interests_sent 	179507
scalar one_cache_scenario_with_free_link_network.node[0].core_layer 	interests[0] 	179507
scalar one_cache_scenario_with_free_link_network.node[0].core_layer 	data[0] 	151672
scalar one_cache_scenario_with_free_link_network.node[0].core_layer 	repo_int[0] 	151672
scalar one_cache_scenario_with_free_link_network.node[0].content_store 	p_hit[0] 	0.1550635908349
scalar one_cache_scenario_with_free_link_network.node[0].content_store 	hits[0] 	27835
scalar one_cache_scenario_with_free_link_network.node[0].content_store 	misses[0] 	151672
scalar one_cache_scenario_with_free_link_network.node[0].content_store 	decision_yes[0] 	1271
scalar one_cache_scenario_with_free_link_network.node[0].content_store 	decision_no[0] 	150401
scalar one_cache_scenario_with_free_link_network.node[1].core_layer 	interests[1] 	88591
scalar one_cache_scenario_with_free_link_network.node[1].core_layer 	data[1] 	88591
scalar one_cache_scenario_with_free_link_network.node[1].content_store 	p_hit[1] 	0
scalar one_cache_scenario_with_free_link_network.node[1].content_store 	hits[1] 	0
scalar one_cache_scenario_with_free_link_network.node[1].content_store 	misses[1] 	88591
scalar one_cache_scenario_with_free_link_network.node[1].content_store 	decision_yes[1] 	0
scalar one_cache_scenario_with_free_link_network.node[1].content_store 	decision_no[1] 	88591
scalar one_cache_scenario_with_free_link_network.node[2].core_layer 	interests[2] 	63081
scalar one_cache_scenario_with_free_link_network.node[2].core_layer 	data[2] 	63081
scalar one_cache_scenario_with_free_link_network.node[2].content_store 	p_hit[2] 	0
scalar one_cache_scenario_with_free_link_network.node[2].content_store 	hits[2] 	0
scalar one_cache_scenario_with_free_link_network.node[2].content_store 	misses[2] 	63081
scalar one_cache_scenario_with_free_link_network.node[2].content_store 	decision_yes[2] 	0
scalar one_cache_scenario_with_free_link_network.node[2].content_store 	decision_no[2] 	63081
scalar one_cache_scenario_with_free_link_network.node[3].core_layer 	interests[3] 	88591
scalar one_cache_scenario_with_free_link_network.node[3].core_layer 	repo_load[3] 	88591
scalar one_cache_scenario_with_free_link_network.node[3].core_layer 	data[3] 	0
scalar one_cache_scenario_with_free_link_network.node[3].content_store 	p_hit[3] 	0
scalar one_cache_scenario_with_free_link_network.node[3].content_store 	hits[3] 	0
scalar one_cache_scenario_with_free_link_network.node[3].content_store 	misses[3] 	88591
scalar one_cache_scenario_with_free_link_network.node[3].content_store 	decision_yes[3] 	0
scalar one_cache_scenario_with_free_link_network.node[3].content_store 	decision_no[3] 	88591
scalar one_cache_scenario_with_free_link_network.node[4].core_layer 	interests[4] 	63081
scalar one_cache_scenario_with_free_link_network.node[4].core_layer 	repo_load[4] 	63081
scalar one_cache_scenario_with_free_link_network.node[4].core_layer 	data[4] 	0
scalar one_cache_scenario_with_free_link_network.node[4].content_store 	p_hit[4] 	0
scalar one_cache_scenario_with_free_link_network.node[4].content_store 	hits[4] 	0
scalar one_cache_scenario_with_free_link_network.node[4].content_store 	misses[4] 	63081
scalar one_cache_scenario_with_free_link_network.node[4].content_store 	decision_yes[4] 	0
scalar one_cache_scenario_with_free_link_network.node[4].content_store 	decision_no[4] 	63081
scalar one_cache_scenario_with_free_link_network.client[0] 	hdistance[0] 	1.6898728183302
scalar one_cache_scenario_with_free_link_network.client[0] 	downloads[0] 	179507
scalar one_cache_scenario_with_free_link_network.client[0] 	avg_time[0] 	0
scalar one_cache_scenario_with_free_link_network.client[0] 	interests_sent[0] 	179507
