version 2
run General-628-20140502-02:19:14-9522
attr D costprob0.01
attr F nrr
attr R lru
attr a 1
attr configname General
attr csize 1e3
attr ctlg 1e5
attr datetime 20140502-02:19:14
attr experiment General
attr inifile omnetpp.ini
attr iterationvars "$net=three_caches_scenario_3_links, $rep=2, $priceratiovalue=1, $weights=0.2_0.4_0.4, $a=1, $ctlg=1e5, $F=nrr, $ttl=1000, $D=costprob0.01, $xi=1, $R=lru, $csize=1e3"
attr iterationvars2 "$net=three_caches_scenario_3_links, $rep=2, $priceratiovalue=1, $weights=0.2_0.4_0.4, $a=1, $ctlg=1e5, $F=nrr, $ttl=1000, $D=costprob0.01, $xi=1, $R=lru, $csize=1e3, $repetition=0"
attr measurement "$net=three_caches_scenario_3_links, $rep=2, $priceratiovalue=1, $weights=0.2_0.4_0.4, $a=1, $ctlg=1e5, $F=nrr, $ttl=1000, $D=costprob0.01, $xi=1, $R=lru, $csize=1e3"
attr net three_caches_scenario_3_links
attr network networks.${net=three_caches_scenario_3_links}_network
attr priceratiovalue 1
attr processid 9522
attr rep 2
attr repetition 0
attr replication #0
attr resultdir results
attr runnumber 628
attr seedset 2
attr ttl 1000
attr weights 0.2_0.4_0.4
attr xi 1

scalar . 	a 	1
scalar . 	csize 	1e3
scalar . 	ctlg 	1e5
scalar . 	priceratiovalue 	1
scalar . 	rep 	2
scalar . 	ttl 	1000
scalar . 	xi 	1
scalar three_caches_scenario_3_links_network.content_distribution 	repo-0 	4
scalar three_caches_scenario_3_links_network.content_distribution 	repo-1 	5
scalar three_caches_scenario_3_links_network.content_distribution 	repo-2 	6
scalar three_caches_scenario_3_links_network.content_distribution 	client-0 	0
scalar three_caches_scenario_3_links_network.content_distribution 	repo-0_card 	20021
scalar three_caches_scenario_3_links_network.content_distribution 	repo-1_card 	39941
scalar three_caches_scenario_3_links_network.content_distribution 	repo-2_card 	40038
scalar three_caches_scenario_3_links_network.statistics 	p_hit 	0.19682296433462
scalar three_caches_scenario_3_links_network.statistics 	interests 	60406.714285714
scalar three_caches_scenario_3_links_network.statistics 	data 	34762.285714286
scalar three_caches_scenario_3_links_network.statistics 	hdistance 	1.6924255338113
scalar three_caches_scenario_3_links_network.statistics 	avg_time 	0
scalar three_caches_scenario_3_links_network.statistics 	downloads 	179511
scalar three_caches_scenario_3_links_network.statistics 	total_cost 	60473
scalar three_caches_scenario_3_links_network.statistics 	total_replicas 	100000
scalar three_caches_scenario_3_links_network.statistics 	interests_sent 	179511
scalar three_caches_scenario_3_links_network.node[0].core_layer 	interests[0] 	179511
scalar three_caches_scenario_3_links_network.node[0].core_layer 	data[0] 	147051
scalar three_caches_scenario_3_links_network.node[0].core_layer 	repo_int[0] 	96285
scalar three_caches_scenario_3_links_network.node[0].content_store 	p_hit[0] 	0.18082457342447
scalar three_caches_scenario_3_links_network.node[0].content_store 	hits[0] 	32460
scalar three_caches_scenario_3_links_network.node[0].content_store 	misses[0] 	147051
scalar three_caches_scenario_3_links_network.node[0].content_store 	decision_yes[0] 	798
scalar three_caches_scenario_3_links_network.node[0].content_store 	decision_no[0] 	146253
scalar three_caches_scenario_3_links_network.node[1].core_layer 	interests[1] 	35812
scalar three_caches_scenario_3_links_network.node[1].core_layer 	data[1] 	35812
scalar three_caches_scenario_3_links_network.node[1].content_store 	p_hit[1] 	0
scalar three_caches_scenario_3_links_network.node[1].content_store 	hits[1] 	0
scalar three_caches_scenario_3_links_network.node[1].content_store 	misses[1] 	35812
scalar three_caches_scenario_3_links_network.node[1].content_store 	decision_yes[1] 	0
scalar three_caches_scenario_3_links_network.node[1].content_store 	decision_no[1] 	35812
scalar three_caches_scenario_3_links_network.node[2].core_layer 	interests[2] 	60725
scalar three_caches_scenario_3_links_network.node[2].core_layer 	data[2] 	30486
scalar three_caches_scenario_3_links_network.node[2].content_store 	p_hit[2] 	0.49796624125154
scalar three_caches_scenario_3_links_network.node[2].content_store 	hits[2] 	30239
scalar three_caches_scenario_3_links_network.node[2].content_store 	misses[2] 	30486
scalar three_caches_scenario_3_links_network.node[2].content_store 	decision_yes[2] 	398
scalar three_caches_scenario_3_links_network.node[2].content_store 	decision_no[2] 	30088
scalar three_caches_scenario_3_links_network.node[3].core_layer 	interests[3] 	50514
scalar three_caches_scenario_3_links_network.node[3].core_layer 	data[3] 	29987
scalar three_caches_scenario_3_links_network.node[3].content_store 	p_hit[3] 	0.4063625925486
scalar three_caches_scenario_3_links_network.node[3].content_store 	hits[3] 	20527
scalar three_caches_scenario_3_links_network.node[3].content_store 	misses[3] 	29987
scalar three_caches_scenario_3_links_network.node[3].content_store 	decision_yes[3] 	401
scalar three_caches_scenario_3_links_network.node[3].content_store 	decision_no[3] 	29586
scalar three_caches_scenario_3_links_network.node[4].core_layer 	interests[4] 	35812
scalar three_caches_scenario_3_links_network.node[4].core_layer 	repo_load[4] 	35812
scalar three_caches_scenario_3_links_network.node[4].core_layer 	data[4] 	0
scalar three_caches_scenario_3_links_network.node[4].content_store 	p_hit[4] 	0
scalar three_caches_scenario_3_links_network.node[4].content_store 	hits[4] 	0
scalar three_caches_scenario_3_links_network.node[4].content_store 	misses[4] 	35812
scalar three_caches_scenario_3_links_network.node[4].content_store 	decision_yes[4] 	0
scalar three_caches_scenario_3_links_network.node[4].content_store 	decision_no[4] 	35812
scalar three_caches_scenario_3_links_network.node[5].core_layer 	interests[5] 	30486
scalar three_caches_scenario_3_links_network.node[5].core_layer 	repo_load[5] 	30486
scalar three_caches_scenario_3_links_network.node[5].core_layer 	data[5] 	0
scalar three_caches_scenario_3_links_network.node[5].content_store 	p_hit[5] 	0
scalar three_caches_scenario_3_links_network.node[5].content_store 	hits[5] 	0
scalar three_caches_scenario_3_links_network.node[5].content_store 	misses[5] 	30486
scalar three_caches_scenario_3_links_network.node[5].content_store 	decision_yes[5] 	0
scalar three_caches_scenario_3_links_network.node[5].content_store 	decision_no[5] 	30486
scalar three_caches_scenario_3_links_network.node[6].core_layer 	interests[6] 	29987
scalar three_caches_scenario_3_links_network.node[6].core_layer 	repo_load[6] 	29987
scalar three_caches_scenario_3_links_network.node[6].core_layer 	data[6] 	0
scalar three_caches_scenario_3_links_network.node[6].content_store 	p_hit[6] 	0
scalar three_caches_scenario_3_links_network.node[6].content_store 	hits[6] 	0
scalar three_caches_scenario_3_links_network.node[6].content_store 	misses[6] 	29987
scalar three_caches_scenario_3_links_network.node[6].content_store 	decision_yes[6] 	0
scalar three_caches_scenario_3_links_network.node[6].content_store 	decision_no[6] 	29987
scalar three_caches_scenario_3_links_network.client[0] 	hdistance[0] 	1.6924255338113
scalar three_caches_scenario_3_links_network.client[0] 	downloads[0] 	179511
scalar three_caches_scenario_3_links_network.client[0] 	avg_time[0] 	0
scalar three_caches_scenario_3_links_network.client[0] 	interests_sent[0] 	179511
