version 2
run General-2356-20140502-05:39:09-11306
attr D costprob0.01
attr F nrr
attr R lru
attr a 1
attr configname General
attr csize 1e3
attr ctlg 1e5
attr datetime 20140502-05:39:09
attr experiment General
attr inifile omnetpp.ini
attr iterationvars "$net=three_caches_scenario_3_links, $rep=5, $priceratiovalue=1, $weights=0.2_0.4_0.4, $a=1, $ctlg=1e5, $F=nrr, $ttl=1000, $D=costprob0.01, $xi=1, $R=lru, $csize=1e3"
attr iterationvars2 "$net=three_caches_scenario_3_links, $rep=5, $priceratiovalue=1, $weights=0.2_0.4_0.4, $a=1, $ctlg=1e5, $F=nrr, $ttl=1000, $D=costprob0.01, $xi=1, $R=lru, $csize=1e3, $repetition=0"
attr measurement "$net=three_caches_scenario_3_links, $rep=5, $priceratiovalue=1, $weights=0.2_0.4_0.4, $a=1, $ctlg=1e5, $F=nrr, $ttl=1000, $D=costprob0.01, $xi=1, $R=lru, $csize=1e3"
attr net three_caches_scenario_3_links
attr network networks.${net=three_caches_scenario_3_links}_network
attr priceratiovalue 1
attr processid 11306
attr rep 5
attr repetition 0
attr replication #0
attr resultdir results
attr runnumber 2356
attr seedset 5
attr ttl 1000
attr weights 0.2_0.4_0.4
attr xi 1

scalar . 	a 	1
scalar . 	csize 	1e3
scalar . 	ctlg 	1e5
scalar . 	priceratiovalue 	1
scalar . 	rep 	5
scalar . 	ttl 	1000
scalar . 	xi 	1
scalar three_caches_scenario_3_links_network.content_distribution 	repo-0 	4
scalar three_caches_scenario_3_links_network.content_distribution 	repo-1 	5
scalar three_caches_scenario_3_links_network.content_distribution 	repo-2 	6
scalar three_caches_scenario_3_links_network.content_distribution 	client-0 	0
scalar three_caches_scenario_3_links_network.content_distribution 	repo-0_card 	19937
scalar three_caches_scenario_3_links_network.content_distribution 	repo-1_card 	40032
scalar three_caches_scenario_3_links_network.content_distribution 	repo-2_card 	40031
scalar three_caches_scenario_3_links_network.statistics 	p_hit 	0.1350512034542
scalar three_caches_scenario_3_links_network.statistics 	interests 	63988.428571429
scalar three_caches_scenario_3_links_network.statistics 	data 	38156.857142857
scalar three_caches_scenario_3_links_network.statistics 	hdistance 	1.8132683703773
scalar three_caches_scenario_3_links_network.statistics 	avg_time 	0
scalar three_caches_scenario_3_links_network.statistics 	downloads 	180821
scalar three_caches_scenario_3_links_network.statistics 	total_cost 	60779
scalar three_caches_scenario_3_links_network.statistics 	total_replicas 	100000
scalar three_caches_scenario_3_links_network.statistics 	interests_sent 	180821
scalar three_caches_scenario_3_links_network.node[0].core_layer 	interests[0] 	180821
scalar three_caches_scenario_3_links_network.node[0].core_layer 	data[0] 	146769
scalar three_caches_scenario_3_links_network.node[0].core_layer 	repo_int[0] 	120329
scalar three_caches_scenario_3_links_network.node[0].content_store 	p_hit[0] 	0.18831883464863
scalar three_caches_scenario_3_links_network.node[0].content_store 	hits[0] 	34052
scalar three_caches_scenario_3_links_network.node[0].content_store 	misses[0] 	146769
scalar three_caches_scenario_3_links_network.node[0].content_store 	decision_yes[0] 	775
scalar three_caches_scenario_3_links_network.node[0].content_store 	decision_no[0] 	145994
scalar three_caches_scenario_3_links_network.node[1].core_layer 	interests[1] 	59550
scalar three_caches_scenario_3_links_network.node[1].core_layer 	data[1] 	59550
scalar three_caches_scenario_3_links_network.node[1].content_store 	p_hit[1] 	0
scalar three_caches_scenario_3_links_network.node[1].content_store 	hits[1] 	0
scalar three_caches_scenario_3_links_network.node[1].content_store 	misses[1] 	59550
scalar three_caches_scenario_3_links_network.node[1].content_store 	decision_yes[1] 	0
scalar three_caches_scenario_3_links_network.node[1].content_store 	decision_no[1] 	59550
scalar three_caches_scenario_3_links_network.node[2].core_layer 	interests[2] 	41163
scalar three_caches_scenario_3_links_network.node[2].core_layer 	data[2] 	30631
scalar three_caches_scenario_3_links_network.node[2].content_store 	p_hit[2] 	0.2558608459053
scalar three_caches_scenario_3_links_network.node[2].content_store 	hits[2] 	10532
scalar three_caches_scenario_3_links_network.node[2].content_store 	misses[2] 	30631
scalar three_caches_scenario_3_links_network.node[2].content_store 	decision_yes[2] 	394
scalar three_caches_scenario_3_links_network.node[2].content_store 	decision_no[2] 	30237
scalar three_caches_scenario_3_links_network.node[3].core_layer 	interests[3] 	46056
scalar three_caches_scenario_3_links_network.node[3].core_layer 	data[3] 	30148
scalar three_caches_scenario_3_links_network.node[3].content_store 	p_hit[3] 	0.3454055931909
scalar three_caches_scenario_3_links_network.node[3].content_store 	hits[3] 	15908
scalar three_caches_scenario_3_links_network.node[3].content_store 	misses[3] 	30148
scalar three_caches_scenario_3_links_network.node[3].content_store 	decision_yes[3] 	366
scalar three_caches_scenario_3_links_network.node[3].content_store 	decision_no[3] 	29782
scalar three_caches_scenario_3_links_network.node[4].core_layer 	interests[4] 	59550
scalar three_caches_scenario_3_links_network.node[4].core_layer 	repo_load[4] 	59550
scalar three_caches_scenario_3_links_network.node[4].core_layer 	data[4] 	0
scalar three_caches_scenario_3_links_network.node[4].content_store 	p_hit[4] 	0
scalar three_caches_scenario_3_links_network.node[4].content_store 	hits[4] 	0
scalar three_caches_scenario_3_links_network.node[4].content_store 	misses[4] 	59550
scalar three_caches_scenario_3_links_network.node[4].content_store 	decision_yes[4] 	0
scalar three_caches_scenario_3_links_network.node[4].content_store 	decision_no[4] 	59550
scalar three_caches_scenario_3_links_network.node[5].core_layer 	interests[5] 	30631
scalar three_caches_scenario_3_links_network.node[5].core_layer 	repo_load[5] 	30631
scalar three_caches_scenario_3_links_network.node[5].core_layer 	data[5] 	0
scalar three_caches_scenario_3_links_network.node[5].content_store 	p_hit[5] 	0
scalar three_caches_scenario_3_links_network.node[5].content_store 	hits[5] 	0
scalar three_caches_scenario_3_links_network.node[5].content_store 	misses[5] 	30631
scalar three_caches_scenario_3_links_network.node[5].content_store 	decision_yes[5] 	0
scalar three_caches_scenario_3_links_network.node[5].content_store 	decision_no[5] 	30631
scalar three_caches_scenario_3_links_network.node[6].core_layer 	interests[6] 	30148
scalar three_caches_scenario_3_links_network.node[6].core_layer 	repo_load[6] 	30148
scalar three_caches_scenario_3_links_network.node[6].core_layer 	data[6] 	0
scalar three_caches_scenario_3_links_network.node[6].content_store 	p_hit[6] 	0
scalar three_caches_scenario_3_links_network.node[6].content_store 	hits[6] 	0
scalar three_caches_scenario_3_links_network.node[6].content_store 	misses[6] 	30148
scalar three_caches_scenario_3_links_network.node[6].content_store 	decision_yes[6] 	0
scalar three_caches_scenario_3_links_network.node[6].content_store 	decision_no[6] 	30148
scalar three_caches_scenario_3_links_network.client[0] 	hdistance[0] 	1.8132683703773
scalar three_caches_scenario_3_links_network.client[0] 	downloads[0] 	180821
scalar three_caches_scenario_3_links_network.client[0] 	avg_time[0] 	0
scalar three_caches_scenario_3_links_network.client[0] 	interests_sent[0] 	180821
