version 2
run General-3692-20140425-05:14:46-15701
attr D fix0.0001
attr F nrr
attr R lru
attr a 1.2
attr configname General
attr csize 30
attr ctlg 10^3
attr datetime 20140425-05:14:46
attr experiment General
attr inifile omnetpp.ini
attr iterationvars "$net=one_cache_scenario, $rep=9, $priceratiovalue=8, $a=1.2, $ctlg=10^3, $F=nrr, $ttl=1000, $D=fix0.0001, $R=lru, $csize=30"
attr iterationvars2 "$net=one_cache_scenario, $rep=9, $priceratiovalue=8, $a=1.2, $ctlg=10^3, $F=nrr, $ttl=1000, $D=fix0.0001, $R=lru, $csize=30, $repetition=0"
attr measurement "$net=one_cache_scenario, $rep=9, $priceratiovalue=8, $a=1.2, $ctlg=10^3, $F=nrr, $ttl=1000, $D=fix0.0001, $R=lru, $csize=30"
attr net one_cache_scenario
attr network networks.${net=one_cache_scenario}_network
attr priceratiovalue 8
attr processid 15701
attr rep 9
attr repetition 0
attr replication #0
attr resultdir results
attr runnumber 3692
attr seedset 9
attr ttl 1000

scalar . 	a 	1.2
scalar . 	csize 	30
scalar . 	priceratiovalue 	8
scalar . 	rep 	9
scalar . 	ttl 	1000
scalar one_cache_scenario_network.content_distribution 	repo-0 	3
scalar one_cache_scenario_network.content_distribution 	repo-1 	4
scalar one_cache_scenario_network.content_distribution 	client-0 	0
scalar one_cache_scenario_network.content_distribution 	repo-0_card 	499
scalar one_cache_scenario_network.content_distribution 	repo-1_card 	501
scalar one_cache_scenario_network.statistics 	p_hit 	0.3677153852094
scalar one_cache_scenario_network.statistics 	interests 	62158.4
scalar one_cache_scenario_network.statistics 	data 	26201.2
scalar one_cache_scenario_network.statistics 	hdistance 	0.72867742760838
scalar one_cache_scenario_network.statistics 	avg_time 	0
scalar one_cache_scenario_network.statistics 	downloads 	179786
scalar one_cache_scenario_network.statistics 	total_cost 	34137
scalar one_cache_scenario_network.statistics 	interests_sent 	179786
scalar one_cache_scenario_network.node[0].core_layer 	interests[0] 	179786
scalar one_cache_scenario_network.node[0].core_layer 	data[0] 	65503
scalar one_cache_scenario_network.node[0].core_layer 	repo_int[0] 	65503
scalar one_cache_scenario_network.node[0].content_store 	p_hit[0] 	0.63566128619581
scalar one_cache_scenario_network.node[0].content_store 	hits[0] 	114283
scalar one_cache_scenario_network.node[0].content_store 	misses[0] 	65503
scalar one_cache_scenario_network.node[0].content_store 	decision_yes[0] 	5
scalar one_cache_scenario_network.node[0].content_store 	decision_no[0] 	65498
scalar one_cache_scenario_network.node[1].core_layer 	interests[1] 	30968
scalar one_cache_scenario_network.node[1].core_layer 	data[1] 	30968
scalar one_cache_scenario_network.node[1].content_store 	p_hit[1] 	0
scalar one_cache_scenario_network.node[1].content_store 	hits[1] 	0
scalar one_cache_scenario_network.node[1].content_store 	misses[1] 	30968
scalar one_cache_scenario_network.node[1].content_store 	decision_yes[1] 	0
scalar one_cache_scenario_network.node[1].content_store 	decision_no[1] 	30968
scalar one_cache_scenario_network.node[2].core_layer 	interests[2] 	34535
scalar one_cache_scenario_network.node[2].core_layer 	data[2] 	34535
scalar one_cache_scenario_network.node[2].content_store 	p_hit[2] 	0
scalar one_cache_scenario_network.node[2].content_store 	hits[2] 	0
scalar one_cache_scenario_network.node[2].content_store 	misses[2] 	34535
scalar one_cache_scenario_network.node[2].content_store 	decision_yes[2] 	0
scalar one_cache_scenario_network.node[2].content_store 	decision_no[2] 	34535
scalar one_cache_scenario_network.node[3].core_layer 	interests[3] 	30968
scalar one_cache_scenario_network.node[3].core_layer 	repo_load[3] 	30968
scalar one_cache_scenario_network.node[3].core_layer 	data[3] 	0
scalar one_cache_scenario_network.node[3].content_store 	p_hit[3] 	0
scalar one_cache_scenario_network.node[3].content_store 	hits[3] 	0
scalar one_cache_scenario_network.node[3].content_store 	misses[3] 	30968
scalar one_cache_scenario_network.node[3].content_store 	decision_yes[3] 	0
scalar one_cache_scenario_network.node[3].content_store 	decision_no[3] 	30968
scalar one_cache_scenario_network.node[4].core_layer 	interests[4] 	34535
scalar one_cache_scenario_network.node[4].core_layer 	repo_load[4] 	34535
scalar one_cache_scenario_network.node[4].core_layer 	data[4] 	0
scalar one_cache_scenario_network.node[4].content_store 	p_hit[4] 	0
scalar one_cache_scenario_network.node[4].content_store 	hits[4] 	0
scalar one_cache_scenario_network.node[4].content_store 	misses[4] 	34535
scalar one_cache_scenario_network.node[4].content_store 	decision_yes[4] 	0
scalar one_cache_scenario_network.node[4].content_store 	decision_no[4] 	34535
scalar one_cache_scenario_network.client[0] 	hdistance[0] 	0.72867742760838
scalar one_cache_scenario_network.client[0] 	downloads[0] 	179786
scalar one_cache_scenario_network.client[0] 	avg_time[0] 	0
scalar one_cache_scenario_network.client[0] 	interests_sent[0] 	179786
