version 2
run General-14-20140627-18:14:54-11364
attr D fix0.01
attr F spr
attr R lru
attr a 1
attr configname General
attr csize 1e3
attr ctlg 1e5
attr datetime 20140627-18:14:54
attr experiment General
attr inifile omnetpp.ini
attr iterationvars "$net=geant_cost, $rep=12, $priceratiovalue=10, $weights=0.333_0.333_0.334, $lambda=100, $a=1, $ctlg=1e5, $F=spr, $ttl=1000, $D=fix0.01, $xi=1, $R=lru, $csize=1e3, $pricebits=0, $window=60, $variance=0.05, $mytime=1800"
attr iterationvars2 "$net=geant_cost, $rep=12, $priceratiovalue=10, $weights=0.333_0.333_0.334, $lambda=100, $a=1, $ctlg=1e5, $F=spr, $ttl=1000, $D=fix0.01, $xi=1, $R=lru, $csize=1e3, $pricebits=0, $window=60, $variance=0.05, $mytime=1800, $repetition=0"
attr lambda 100
attr measurement "$net=geant_cost, $rep=12, $priceratiovalue=10, $weights=0.333_0.333_0.334, $lambda=100, $a=1, $ctlg=1e5, $F=spr, $ttl=1000, $D=fix0.01, $xi=1, $R=lru, $csize=1e3, $pricebits=0, $window=60, $variance=0.05, $mytime=1800"
attr mytime 1800
attr net geant_cost
attr network "networks.${net=geant_cost, abilene_cost}_network"
attr pricebits 0
attr priceratiovalue 10
attr processid 11364
attr rep 12
attr repetition 0
attr replication #0
attr resultdir results
attr runnumber 14
attr seedset 12
attr ttl 1000
attr variance 0.05
attr weights 0.333_0.333_0.334
attr window 60
attr xi 1

scalar . 	a 	1
scalar . 	csize 	1e3
scalar . 	ctlg 	1e5
scalar . 	lambda 	100
scalar . 	mytime 	1800
scalar . 	pricebits 	0
scalar . 	priceratiovalue 	10
scalar . 	rep 	12
scalar . 	ttl 	1000
scalar . 	variance 	0.05
scalar . 	window 	60
scalar . 	xi 	1
scalar geant_cost_network.content_distribution 	repo-0 	22
scalar geant_cost_network.content_distribution 	repo-1 	23
scalar geant_cost_network.content_distribution 	repo-2 	24
scalar geant_cost_network.content_distribution 	client-0 	20
scalar geant_cost_network.content_distribution 	client-1 	10
scalar geant_cost_network.content_distribution 	client-2 	12
scalar geant_cost_network.content_distribution 	client-3 	9
scalar geant_cost_network.content_distribution 	client-4 	5
scalar geant_cost_network.content_distribution 	repo-0_card 	33376
scalar geant_cost_network.content_distribution 	repo-1_card 	33439
scalar geant_cost_network.content_distribution 	repo-2_card 	33185
scalar geant_cost_network.statistics 	repo_popularity[0] 	0.3146103286495
scalar geant_cost_network.statistics 	repo_popularity[1] 	0.33182472258399
scalar geant_cost_network.statistics 	repo_popularity[2] 	0.35356494876651
scalar geant_cost_network.statistics 	stabilization_time 	36060
scalar geant_cost_network.node[7].face$o[4].channel 	price[7] 	0
scalar geant_cost_network.node[7].face$o[4].channel 	represented_price[7] 	0
scalar geant_cost_network.node[8].face$o[3].channel 	price[8] 	0
scalar geant_cost_network.node[8].face$o[3].channel 	represented_price[8] 	0
scalar geant_cost_network.node[21].face$o[5].channel 	price[21] 	0
scalar geant_cost_network.node[21].face$o[5].channel 	represented_price[21] 	0
scalar geant_cost_network.node[22].face$o[1].channel 	price[22] 	0
scalar geant_cost_network.node[22].face$o[1].channel 	represented_price[22] 	0
scalar geant_cost_network.node[23].face$o[1].channel 	price[23] 	1
scalar geant_cost_network.node[23].face$o[1].channel 	represented_price[23] 	1
scalar geant_cost_network.node[24].face$o[1].channel 	price[24] 	10
scalar geant_cost_network.node[24].face$o[1].channel 	represented_price[24] 	10
scalar geant_cost_network.statistics 	p_hit 	0.13427490303401
scalar geant_cost_network.statistics 	interests 	116576.96
scalar geant_cost_network.statistics 	data 	80635.44
scalar geant_cost_network.statistics 	hdistance 	2.8084558734817
scalar geant_cost_network.statistics 	avg_time 	0.004223890355
scalar geant_cost_network.statistics 	downloads 	898411
scalar geant_cost_network.statistics 	total_cost 	1778268
scalar geant_cost_network.statistics 	total_replicas 	100000
scalar geant_cost_network.statistics 	inner_hit 	0.43563803203656
scalar geant_cost_network.statistics 	interests_sent 	898533
scalar geant_cost_network.node[0].core_layer 	interests[0] 	0
scalar geant_cost_network.node[0].core_layer 	data[0] 	0
scalar geant_cost_network.node[0].core_layer 	repo_int[0] 	507029
scalar geant_cost_network.node[0].content_store 	p_hit[0] 	-nan
scalar geant_cost_network.node[0].content_store 	hits[0] 	0
scalar geant_cost_network.node[0].content_store 	misses[0] 	0
scalar geant_cost_network.node[0].content_store 	decision_yes[0] 	0
scalar geant_cost_network.node[0].content_store 	decision_no[0] 	0
scalar geant_cost_network.node[0].content_store 	decision_ratio[0] 	0
scalar geant_cost_network.node[1].core_layer 	interests[1] 	0
scalar geant_cost_network.node[1].core_layer 	data[1] 	0
scalar geant_cost_network.node[1].content_store 	p_hit[1] 	-nan
scalar geant_cost_network.node[1].content_store 	hits[1] 	0
scalar geant_cost_network.node[1].content_store 	misses[1] 	0
scalar geant_cost_network.node[1].content_store 	decision_yes[1] 	0
scalar geant_cost_network.node[1].content_store 	decision_no[1] 	0
scalar geant_cost_network.node[1].content_store 	decision_ratio[1] 	0
scalar geant_cost_network.node[2].core_layer 	interests[2] 	0
scalar geant_cost_network.node[2].core_layer 	data[2] 	0
scalar geant_cost_network.node[2].content_store 	p_hit[2] 	-nan
scalar geant_cost_network.node[2].content_store 	hits[2] 	0
scalar geant_cost_network.node[2].content_store 	misses[2] 	0
scalar geant_cost_network.node[2].content_store 	decision_yes[2] 	0
scalar geant_cost_network.node[2].content_store 	decision_no[2] 	0
scalar geant_cost_network.node[2].content_store 	decision_ratio[2] 	0
scalar geant_cost_network.node[3].core_layer 	interests[3] 	150429
scalar geant_cost_network.node[3].core_layer 	data[3] 	139311
scalar geant_cost_network.node[3].content_store 	p_hit[3] 	0.073908621342959
scalar geant_cost_network.node[3].content_store 	hits[3] 	11118
scalar geant_cost_network.node[3].content_store 	misses[3] 	139311
scalar geant_cost_network.node[3].content_store 	decision_yes[3] 	1328
scalar geant_cost_network.node[3].content_store 	decision_no[3] 	137983
scalar geant_cost_network.node[3].content_store 	decision_ratio[3] 	0.0095326284356583
scalar geant_cost_network.node[4].core_layer 	interests[4] 	213274
scalar geant_cost_network.node[4].core_layer 	data[4] 	205369
scalar geant_cost_network.node[4].content_store 	p_hit[4] 	0.037050929789848
scalar geant_cost_network.node[4].content_store 	hits[4] 	7902
scalar geant_cost_network.node[4].content_store 	misses[4] 	205372
scalar geant_cost_network.node[4].content_store 	decision_yes[4] 	2060
scalar geant_cost_network.node[4].content_store 	decision_no[4] 	203309
scalar geant_cost_network.node[4].content_store 	decision_ratio[4] 	0.010030725182476
scalar geant_cost_network.node[5].core_layer 	interests[5] 	179775
scalar geant_cost_network.node[5].core_layer 	data[5] 	120194
scalar geant_cost_network.node[5].content_store 	p_hit[5] 	0.33121958003059
scalar geant_cost_network.node[5].content_store 	hits[5] 	59545
scalar geant_cost_network.node[5].content_store 	misses[5] 	120230
scalar geant_cost_network.node[5].content_store 	decision_yes[5] 	1188
scalar geant_cost_network.node[5].content_store 	decision_no[5] 	119006
scalar geant_cost_network.node[5].content_store 	decision_ratio[5] 	0.0098840208329867
scalar geant_cost_network.node[6].core_layer 	interests[6] 	80235
scalar geant_cost_network.node[6].core_layer 	data[6] 	73416
scalar geant_cost_network.node[6].content_store 	p_hit[6] 	0.084987848195924
scalar geant_cost_network.node[6].content_store 	hits[6] 	6819
scalar geant_cost_network.node[6].content_store 	misses[6] 	73416
scalar geant_cost_network.node[6].content_store 	decision_yes[6] 	763
scalar geant_cost_network.node[6].content_store 	decision_no[6] 	72653
scalar geant_cost_network.node[6].content_store 	decision_ratio[6] 	0.010392829900839
scalar geant_cost_network.node[7].core_layer 	interests[7] 	255566
scalar geant_cost_network.node[7].core_layer 	data[7] 	241918
scalar geant_cost_network.node[7].content_store 	p_hit[7] 	0.053391296181808
scalar geant_cost_network.node[7].content_store 	hits[7] 	13645
scalar geant_cost_network.node[7].content_store 	misses[7] 	241921
scalar geant_cost_network.node[7].content_store 	decision_yes[7] 	2395
scalar geant_cost_network.node[7].content_store 	decision_no[7] 	239523
scalar geant_cost_network.node[7].content_store 	decision_ratio[7] 	0.0099000487768583
scalar geant_cost_network.node[8].core_layer 	interests[8] 	273404
scalar geant_cost_network.node[8].core_layer 	data[8] 	253763
scalar geant_cost_network.node[8].content_store 	p_hit[8] 	0.071835086538602
scalar geant_cost_network.node[8].content_store 	hits[8] 	19640
scalar geant_cost_network.node[8].content_store 	misses[8] 	253764
scalar geant_cost_network.node[8].content_store 	decision_yes[8] 	2593
scalar geant_cost_network.node[8].content_store 	decision_no[8] 	251170
scalar geant_cost_network.node[8].content_store 	decision_ratio[8] 	0.010218195718052
scalar geant_cost_network.node[9].core_layer 	interests[9] 	344879
scalar geant_cost_network.node[9].core_layer 	data[9] 	279321
scalar geant_cost_network.node[9].content_store 	p_hit[9] 	0.18995647748921
scalar geant_cost_network.node[9].content_store 	hits[9] 	65512
scalar geant_cost_network.node[9].content_store 	misses[9] 	279367
scalar geant_cost_network.node[9].content_store 	decision_yes[9] 	2831
scalar geant_cost_network.node[9].content_store 	decision_no[9] 	276490
scalar geant_cost_network.node[9].content_store 	decision_ratio[9] 	0.010135292369711
scalar geant_cost_network.node[10].core_layer 	interests[10] 	179863
scalar geant_cost_network.node[10].core_layer 	data[10] 	120065
scalar geant_cost_network.node[10].content_store 	p_hit[10] 	0.33234739774161
scalar geant_cost_network.node[10].content_store 	hits[10] 	59777
scalar geant_cost_network.node[10].content_store 	misses[10] 	120086
scalar geant_cost_network.node[10].content_store 	decision_yes[10] 	1227
scalar geant_cost_network.node[10].content_store 	decision_no[10] 	118838
scalar geant_cost_network.node[10].content_store 	decision_ratio[10] 	0.010219464456753
scalar geant_cost_network.node[11].core_layer 	interests[11] 	0
scalar geant_cost_network.node[11].core_layer 	data[11] 	0
scalar geant_cost_network.node[11].content_store 	p_hit[11] 	-nan
scalar geant_cost_network.node[11].content_store 	hits[11] 	0
scalar geant_cost_network.node[11].content_store 	misses[11] 	0
scalar geant_cost_network.node[11].content_store 	decision_yes[11] 	0
scalar geant_cost_network.node[11].content_store 	decision_no[11] 	0
scalar geant_cost_network.node[11].content_store 	decision_ratio[11] 	0
scalar geant_cost_network.node[12].core_layer 	interests[12] 	259173
scalar geant_cost_network.node[12].core_layer 	data[12] 	194973
scalar geant_cost_network.node[12].content_store 	p_hit[12] 	0.24757208505516
scalar geant_cost_network.node[12].content_store 	hits[12] 	64164
scalar geant_cost_network.node[12].content_store 	misses[12] 	195009
scalar geant_cost_network.node[12].content_store 	decision_yes[12] 	1995
scalar geant_cost_network.node[12].content_store 	decision_no[12] 	192978
scalar geant_cost_network.node[12].content_store 	decision_ratio[12] 	0.010232185994984
scalar geant_cost_network.node[13].core_layer 	interests[13] 	0
scalar geant_cost_network.node[13].core_layer 	data[13] 	0
scalar geant_cost_network.node[13].content_store 	p_hit[13] 	-nan
scalar geant_cost_network.node[13].content_store 	hits[13] 	0
scalar geant_cost_network.node[13].content_store 	misses[13] 	0
scalar geant_cost_network.node[13].content_store 	decision_yes[13] 	0
scalar geant_cost_network.node[13].content_store 	decision_no[13] 	0
scalar geant_cost_network.node[13].content_store 	decision_ratio[13] 	0
scalar geant_cost_network.node[14].core_layer 	interests[14] 	39959
scalar geant_cost_network.node[14].core_layer 	data[14] 	34524
scalar geant_cost_network.node[14].content_store 	p_hit[14] 	0.13601441477514
scalar geant_cost_network.node[14].content_store 	hits[14] 	5435
scalar geant_cost_network.node[14].content_store 	misses[14] 	34524
scalar geant_cost_network.node[14].content_store 	decision_yes[14] 	331
scalar geant_cost_network.node[14].content_store 	decision_no[14] 	34193
scalar geant_cost_network.node[14].content_store 	decision_ratio[14] 	0.009587533310161
scalar geant_cost_network.node[15].core_layer 	interests[15] 	0
scalar geant_cost_network.node[15].core_layer 	data[15] 	0
scalar geant_cost_network.node[15].content_store 	p_hit[15] 	-nan
scalar geant_cost_network.node[15].content_store 	hits[15] 	0
scalar geant_cost_network.node[15].content_store 	misses[15] 	0
scalar geant_cost_network.node[15].content_store 	decision_yes[15] 	0
scalar geant_cost_network.node[15].content_store 	decision_no[15] 	0
scalar geant_cost_network.node[15].content_store 	decision_ratio[15] 	0
scalar geant_cost_network.node[16].core_layer 	interests[16] 	0
scalar geant_cost_network.node[16].core_layer 	data[16] 	0
scalar geant_cost_network.node[16].content_store 	p_hit[16] 	-nan
scalar geant_cost_network.node[16].content_store 	hits[16] 	0
scalar geant_cost_network.node[16].content_store 	misses[16] 	0
scalar geant_cost_network.node[16].content_store 	decision_yes[16] 	0
scalar geant_cost_network.node[16].content_store 	decision_no[16] 	0
scalar geant_cost_network.node[16].content_store 	decision_ratio[16] 	0
scalar geant_cost_network.node[17].core_layer 	interests[17] 	0
scalar geant_cost_network.node[17].core_layer 	data[17] 	0
scalar geant_cost_network.node[17].content_store 	p_hit[17] 	-nan
scalar geant_cost_network.node[17].content_store 	hits[17] 	0
scalar geant_cost_network.node[17].content_store 	misses[17] 	0
scalar geant_cost_network.node[17].content_store 	decision_yes[17] 	0
scalar geant_cost_network.node[17].content_store 	decision_no[17] 	0
scalar geant_cost_network.node[17].content_store 	decision_ratio[17] 	0
scalar geant_cost_network.node[18].core_layer 	interests[18] 	80018
scalar geant_cost_network.node[18].core_layer 	data[18] 	73962
scalar geant_cost_network.node[18].content_store 	p_hit[18] 	0.075670474143318
scalar geant_cost_network.node[18].content_store 	hits[18] 	6055
scalar geant_cost_network.node[18].content_store 	misses[18] 	73963
scalar geant_cost_network.node[18].content_store 	decision_yes[18] 	735
scalar geant_cost_network.node[18].content_store 	decision_no[18] 	73227
scalar geant_cost_network.node[18].content_store 	decision_ratio[18] 	0.0099375354911982
scalar geant_cost_network.node[19].core_layer 	interests[19] 	0
scalar geant_cost_network.node[19].core_layer 	data[19] 	0
scalar geant_cost_network.node[19].content_store 	p_hit[19] 	-nan
scalar geant_cost_network.node[19].content_store 	hits[19] 	0
scalar geant_cost_network.node[19].content_store 	misses[19] 	0
scalar geant_cost_network.node[19].content_store 	decision_yes[19] 	0
scalar geant_cost_network.node[19].content_store 	decision_no[19] 	0
scalar geant_cost_network.node[19].content_store 	decision_ratio[19] 	0
scalar geant_cost_network.node[20].core_layer 	interests[20] 	179445
scalar geant_cost_network.node[20].core_layer 	data[20] 	119172
scalar geant_cost_network.node[20].content_store 	p_hit[20] 	0.33572961074424
scalar geant_cost_network.node[20].content_store 	hits[20] 	60245
scalar geant_cost_network.node[20].content_store 	misses[20] 	119200
scalar geant_cost_network.node[20].content_store 	decision_yes[20] 	1224
scalar geant_cost_network.node[20].content_store 	decision_no[20] 	117948
scalar geant_cost_network.node[20].content_store 	decision_ratio[20] 	0.010270868996073
scalar geant_cost_network.node[21].core_layer 	interests[21] 	171375
scalar geant_cost_network.node[21].core_layer 	data[21] 	159898
scalar geant_cost_network.node[21].content_store 	p_hit[21] 	0.066970094821298
scalar geant_cost_network.node[21].content_store 	hits[21] 	11477
scalar geant_cost_network.node[21].content_store 	misses[21] 	159898
scalar geant_cost_network.node[21].content_store 	decision_yes[21] 	1565
scalar geant_cost_network.node[21].content_store 	decision_no[21] 	158333
scalar geant_cost_network.node[21].content_store 	decision_ratio[21] 	0.0097874895245719
scalar geant_cost_network.node[22].core_layer 	interests[22] 	167843
scalar geant_cost_network.node[22].core_layer 	repo_load[22] 	167843
scalar geant_cost_network.node[22].core_layer 	data[22] 	0
scalar geant_cost_network.node[22].content_store 	p_hit[22] 	0
scalar geant_cost_network.node[22].content_store 	hits[22] 	0
scalar geant_cost_network.node[22].content_store 	misses[22] 	167843
scalar geant_cost_network.node[22].content_store 	decision_yes[22] 	0
scalar geant_cost_network.node[22].content_store 	decision_no[22] 	167843
scalar geant_cost_network.node[22].content_store 	decision_ratio[22] 	0
scalar geant_cost_network.node[23].core_layer 	interests[23] 	179288
scalar geant_cost_network.node[23].core_layer 	repo_load[23] 	179288
scalar geant_cost_network.node[23].core_layer 	data[23] 	0
scalar geant_cost_network.node[23].content_store 	p_hit[23] 	0
scalar geant_cost_network.node[23].content_store 	hits[23] 	0
scalar geant_cost_network.node[23].content_store 	misses[23] 	179288
scalar geant_cost_network.node[23].content_store 	decision_yes[23] 	0
scalar geant_cost_network.node[23].content_store 	decision_no[23] 	179288
scalar geant_cost_network.node[23].content_store 	decision_ratio[23] 	0
scalar geant_cost_network.node[24].core_layer 	interests[24] 	159898
scalar geant_cost_network.node[24].core_layer 	repo_load[24] 	159898
scalar geant_cost_network.node[24].core_layer 	data[24] 	0
scalar geant_cost_network.node[24].content_store 	p_hit[24] 	0
scalar geant_cost_network.node[24].content_store 	hits[24] 	0
scalar geant_cost_network.node[24].content_store 	misses[24] 	159898
scalar geant_cost_network.node[24].content_store 	decision_yes[24] 	0
scalar geant_cost_network.node[24].content_store 	decision_no[24] 	159898
scalar geant_cost_network.node[24].content_store 	decision_ratio[24] 	0
scalar geant_cost_network.client[5] 	hdistance[5] 	2.5933548089173
scalar geant_cost_network.client[5] 	downloads[5] 	179739
scalar geant_cost_network.client[5] 	avg_time[5] 	0.00681050906
scalar geant_cost_network.client[5] 	interests_sent[5] 	179775
scalar geant_cost_network.client[9] 	hdistance[9] 	2.6214757281553
scalar geant_cost_network.client[9] 	downloads[9] 	180250
scalar geant_cost_network.client[9] 	avg_time[9] 	0.002645836551
scalar geant_cost_network.client[9] 	interests_sent[9] 	180270
scalar geant_cost_network.client[10] 	hdistance[10] 	3.1912011654675
scalar geant_cost_network.client[10] 	downloads[10] 	179842
scalar geant_cost_network.client[10] 	avg_time[10] 	0.00387584573
scalar geant_cost_network.client[10] 	interests_sent[10] 	179863
scalar geant_cost_network.client[12] 	hdistance[12] 	2.8135719986828
scalar geant_cost_network.client[12] 	downloads[12] 	179163
scalar geant_cost_network.client[12] 	avg_time[12] 	0.003184658987
scalar geant_cost_network.client[12] 	interests_sent[12] 	179180
scalar geant_cost_network.client[20] 	hdistance[20] 	2.8226756661855
scalar geant_cost_network.client[20] 	downloads[20] 	179417
scalar geant_cost_network.client[20] 	avg_time[20] 	0.004602601449
scalar geant_cost_network.client[20] 	interests_sent[20] 	179445
