version 2
run General-6-20140630-11:41:03-25629
attr D fix0.01
attr F spr
attr R lru
attr a 1
attr configname General
attr csize 1e3
attr ctlg 1e5
attr datetime 20140630-11:41:03
attr experiment General
attr inifile omnetpp.ini
attr iterationvars "$net=geant_cost, $rep=11, $priceratiovalue=10, $weights=0.333_0.333_0.334, $lambda=100, $a=1, $ctlg=1e5, $F=spr, $ttl=1000, $D=fix0.01, $xi=1, $R=lru, $csize=1e3, $pricebits=0, $window=60, $variance=0.05, $mytime=1800"
attr iterationvars2 "$net=geant_cost, $rep=11, $priceratiovalue=10, $weights=0.333_0.333_0.334, $lambda=100, $a=1, $ctlg=1e5, $F=spr, $ttl=1000, $D=fix0.01, $xi=1, $R=lru, $csize=1e3, $pricebits=0, $window=60, $variance=0.05, $mytime=1800, $repetition=0"
attr lambda 100
attr measurement "$net=geant_cost, $rep=11, $priceratiovalue=10, $weights=0.333_0.333_0.334, $lambda=100, $a=1, $ctlg=1e5, $F=spr, $ttl=1000, $D=fix0.01, $xi=1, $R=lru, $csize=1e3, $pricebits=0, $window=60, $variance=0.05, $mytime=1800"
attr mytime 1800
attr net geant_cost
attr network "networks.${net=geant_cost, abilene_cost}_network"
attr pricebits 0
attr priceratiovalue 10
attr processid 25629
attr rep 11
attr repetition 0
attr replication #0
attr resultdir results
attr runnumber 6
attr seedset 11
attr ttl 1000
attr variance 0.05
attr weights 0.333_0.333_0.334
attr window 60
attr xi 1

scalar . 	a 	1
scalar . 	csize 	1e3
scalar . 	ctlg 	1e5
scalar . 	lambda 	100
scalar . 	mytime 	1800
scalar . 	pricebits 	0
scalar . 	priceratiovalue 	10
scalar . 	rep 	11
scalar . 	ttl 	1000
scalar . 	variance 	0.05
scalar . 	window 	60
scalar . 	xi 	1
scalar geant_cost_network.content_distribution 	repo-0 	22
scalar geant_cost_network.content_distribution 	repo-1 	23
scalar geant_cost_network.content_distribution 	repo-2 	24
scalar geant_cost_network.content_distribution 	client-0 	20
scalar geant_cost_network.content_distribution 	client-1 	10
scalar geant_cost_network.content_distribution 	client-2 	12
scalar geant_cost_network.content_distribution 	client-3 	9
scalar geant_cost_network.content_distribution 	client-4 	5
scalar geant_cost_network.content_distribution 	repo-0_card 	33093
scalar geant_cost_network.content_distribution 	repo-1_card 	33554
scalar geant_cost_network.content_distribution 	repo-2_card 	33353
scalar geant_cost_network.statistics 	repo_popularity[0] 	0.39172976570124
scalar geant_cost_network.statistics 	repo_popularity[1] 	0.31007949205523
scalar geant_cost_network.statistics 	repo_popularity[2] 	0.29819074224352
scalar geant_cost_network.statistics 	stabilization_time 	36060
scalar geant_cost_network.node[7].face$o[4].channel 	price[7] 	0
scalar geant_cost_network.node[7].face$o[4].channel 	represented_price[7] 	0
scalar geant_cost_network.node[8].face$o[3].channel 	price[8] 	0
scalar geant_cost_network.node[8].face$o[3].channel 	represented_price[8] 	0
scalar geant_cost_network.node[21].face$o[5].channel 	price[21] 	0
scalar geant_cost_network.node[21].face$o[5].channel 	represented_price[21] 	0
scalar geant_cost_network.node[22].face$o[1].channel 	price[22] 	0
scalar geant_cost_network.node[22].face$o[1].channel 	represented_price[22] 	0
scalar geant_cost_network.node[23].face$o[1].channel 	price[23] 	1
scalar geant_cost_network.node[23].face$o[1].channel 	represented_price[23] 	1
scalar geant_cost_network.node[24].face$o[1].channel 	price[24] 	10
scalar geant_cost_network.node[24].face$o[1].channel 	represented_price[24] 	10
scalar geant_cost_network.statistics 	p_hit 	0.13501033069902
scalar geant_cost_network.statistics 	interests 	116584.56
scalar geant_cost_network.statistics 	data 	80641.8
scalar geant_cost_network.statistics 	hdistance 	2.8057215458552
scalar geant_cost_network.statistics 	avg_time 	0.004231897314
scalar geant_cost_network.statistics 	downloads 	898458
scalar geant_cost_network.statistics 	total_cost 	1813278
scalar geant_cost_network.statistics 	total_replicas 	100000
scalar geant_cost_network.statistics 	inner_hit 	0.43803828336995
scalar geant_cost_network.statistics 	interests_sent 	898573
scalar geant_cost_network.node[0].core_layer 	interests[0] 	0
scalar geant_cost_network.node[0].core_layer 	data[0] 	0
scalar geant_cost_network.node[0].core_layer 	repo_int[0] 	504899
scalar geant_cost_network.node[0].content_store 	p_hit[0] 	-nan
scalar geant_cost_network.node[0].content_store 	hits[0] 	0
scalar geant_cost_network.node[0].content_store 	misses[0] 	0
scalar geant_cost_network.node[0].content_store 	decision_yes[0] 	0
scalar geant_cost_network.node[0].content_store 	decision_no[0] 	0
scalar geant_cost_network.node[0].content_store 	decision_ratio[0] 	0
scalar geant_cost_network.node[1].core_layer 	interests[1] 	0
scalar geant_cost_network.node[1].core_layer 	data[1] 	0
scalar geant_cost_network.node[1].content_store 	p_hit[1] 	-nan
scalar geant_cost_network.node[1].content_store 	hits[1] 	0
scalar geant_cost_network.node[1].content_store 	misses[1] 	0
scalar geant_cost_network.node[1].content_store 	decision_yes[1] 	0
scalar geant_cost_network.node[1].content_store 	decision_no[1] 	0
scalar geant_cost_network.node[1].content_store 	decision_ratio[1] 	0
scalar geant_cost_network.node[2].core_layer 	interests[2] 	0
scalar geant_cost_network.node[2].core_layer 	data[2] 	0
scalar geant_cost_network.node[2].content_store 	p_hit[2] 	-nan
scalar geant_cost_network.node[2].content_store 	hits[2] 	0
scalar geant_cost_network.node[2].content_store 	misses[2] 	0
scalar geant_cost_network.node[2].content_store 	decision_yes[2] 	0
scalar geant_cost_network.node[2].content_store 	decision_no[2] 	0
scalar geant_cost_network.node[2].content_store 	decision_ratio[2] 	0
scalar geant_cost_network.node[3].core_layer 	interests[3] 	156419
scalar geant_cost_network.node[3].core_layer 	data[3] 	143510
scalar geant_cost_network.node[3].content_store 	p_hit[3] 	0.082534730435561
scalar geant_cost_network.node[3].content_store 	hits[3] 	12910
scalar geant_cost_network.node[3].content_store 	misses[3] 	143509
scalar geant_cost_network.node[3].content_store 	decision_yes[3] 	1488
scalar geant_cost_network.node[3].content_store 	decision_no[3] 	142022
scalar geant_cost_network.node[3].content_store 	decision_ratio[3] 	0.010368615427496
scalar geant_cost_network.node[4].core_layer 	interests[4] 	216151
scalar geant_cost_network.node[4].core_layer 	data[4] 	208014
scalar geant_cost_network.node[4].content_store 	p_hit[4] 	0.037626474085246
scalar geant_cost_network.node[4].content_store 	hits[4] 	8133
scalar geant_cost_network.node[4].content_store 	misses[4] 	208018
scalar geant_cost_network.node[4].content_store 	decision_yes[4] 	2149
scalar geant_cost_network.node[4].content_store 	decision_no[4] 	205865
scalar geant_cost_network.node[4].content_store 	decision_ratio[4] 	0.010331035411078
scalar geant_cost_network.node[5].core_layer 	interests[5] 	179303
scalar geant_cost_network.node[5].core_layer 	data[5] 	119384
scalar geant_cost_network.node[5].content_store 	p_hit[5] 	0.33399329626387
scalar geant_cost_network.node[5].content_store 	hits[5] 	59886
scalar geant_cost_network.node[5].content_store 	misses[5] 	119417
scalar geant_cost_network.node[5].content_store 	decision_yes[5] 	1189
scalar geant_cost_network.node[5].content_store 	decision_no[5] 	118195
scalar geant_cost_network.node[5].content_store 	decision_ratio[5] 	0.0099594585539101
scalar geant_cost_network.node[6].core_layer 	interests[6] 	78436
scalar geant_cost_network.node[6].core_layer 	data[6] 	72085
scalar geant_cost_network.node[6].content_store 	p_hit[6] 	0.080983221989903
scalar geant_cost_network.node[6].content_store 	hits[6] 	6352
scalar geant_cost_network.node[6].content_store 	misses[6] 	72084
scalar geant_cost_network.node[6].content_store 	decision_yes[6] 	734
scalar geant_cost_network.node[6].content_store 	decision_no[6] 	71351
scalar geant_cost_network.node[6].content_store 	decision_ratio[6] 	0.01018242352778
scalar geant_cost_network.node[7].core_layer 	interests[7] 	255733
scalar geant_cost_network.node[7].core_layer 	data[7] 	240659
scalar geant_cost_network.node[7].content_store 	p_hit[7] 	0.058936468895293
scalar geant_cost_network.node[7].content_store 	hits[7] 	15072
scalar geant_cost_network.node[7].content_store 	misses[7] 	240661
scalar geant_cost_network.node[7].content_store 	decision_yes[7] 	2441
scalar geant_cost_network.node[7].content_store 	decision_no[7] 	238218
scalar geant_cost_network.node[7].content_store 	decision_ratio[7] 	0.010142982394176
scalar geant_cost_network.node[8].core_layer 	interests[8] 	261824
scalar geant_cost_network.node[8].core_layer 	data[8] 	245415
scalar geant_cost_network.node[8].content_store 	p_hit[8] 	0.06267187118064
scalar geant_cost_network.node[8].content_store 	hits[8] 	16409
scalar geant_cost_network.node[8].content_store 	misses[8] 	245415
scalar geant_cost_network.node[8].content_store 	decision_yes[8] 	2416
scalar geant_cost_network.node[8].content_store 	decision_no[8] 	242999
scalar geant_cost_network.node[8].content_store 	decision_ratio[8] 	0.0098445490291954
scalar geant_cost_network.node[9].core_layer 	interests[9] 	341653
scalar geant_cost_network.node[9].core_layer 	data[9] 	276061
scalar geant_cost_network.node[9].content_store 	p_hit[9] 	0.19183499047279
scalar geant_cost_network.node[9].content_store 	hits[9] 	65541
scalar geant_cost_network.node[9].content_store 	misses[9] 	276112
scalar geant_cost_network.node[9].content_store 	decision_yes[9] 	2804
scalar geant_cost_network.node[9].content_store 	decision_no[9] 	273257
scalar geant_cost_network.node[9].content_store 	decision_ratio[9] 	0.010157175406885
scalar geant_cost_network.node[10].core_layer 	interests[10] 	180179
scalar geant_cost_network.node[10].core_layer 	data[10] 	120444
scalar geant_cost_network.node[10].content_store 	p_hit[10] 	0.33140932073105
scalar geant_cost_network.node[10].content_store 	hits[10] 	59713
scalar geant_cost_network.node[10].content_store 	misses[10] 	120466
scalar geant_cost_network.node[10].content_store 	decision_yes[10] 	1219
scalar geant_cost_network.node[10].content_store 	decision_no[10] 	119225
scalar geant_cost_network.node[10].content_store 	decision_ratio[10] 	0.01012088605493
scalar geant_cost_network.node[11].core_layer 	interests[11] 	0
scalar geant_cost_network.node[11].core_layer 	data[11] 	0
scalar geant_cost_network.node[11].content_store 	p_hit[11] 	-nan
scalar geant_cost_network.node[11].content_store 	hits[11] 	0
scalar geant_cost_network.node[11].content_store 	misses[11] 	0
scalar geant_cost_network.node[11].content_store 	decision_yes[11] 	0
scalar geant_cost_network.node[11].content_store 	decision_no[11] 	0
scalar geant_cost_network.node[11].content_store 	decision_ratio[11] 	0
scalar geant_cost_network.node[12].core_layer 	interests[12] 	264031
scalar geant_cost_network.node[12].core_layer 	data[12] 	198105
scalar geant_cost_network.node[12].content_store 	p_hit[12] 	0.24956160450856
scalar geant_cost_network.node[12].content_store 	hits[12] 	65892
scalar geant_cost_network.node[12].content_store 	misses[12] 	198139
scalar geant_cost_network.node[12].content_store 	decision_yes[12] 	1867
scalar geant_cost_network.node[12].content_store 	decision_no[12] 	196238
scalar geant_cost_network.node[12].content_store 	decision_ratio[12] 	0.0094242951969915
scalar geant_cost_network.node[13].core_layer 	interests[13] 	0
scalar geant_cost_network.node[13].core_layer 	data[13] 	0
scalar geant_cost_network.node[13].content_store 	p_hit[13] 	-nan
scalar geant_cost_network.node[13].content_store 	hits[13] 	0
scalar geant_cost_network.node[13].content_store 	misses[13] 	0
scalar geant_cost_network.node[13].content_store 	decision_yes[13] 	0
scalar geant_cost_network.node[13].content_store 	decision_no[13] 	0
scalar geant_cost_network.node[13].content_store 	decision_ratio[13] 	0
scalar geant_cost_network.node[14].core_layer 	interests[14] 	40946
scalar geant_cost_network.node[14].core_layer 	data[14] 	35207
scalar geant_cost_network.node[14].content_store 	p_hit[14] 	0.14016021100962
scalar geant_cost_network.node[14].content_store 	hits[14] 	5739
scalar geant_cost_network.node[14].content_store 	misses[14] 	35207
scalar geant_cost_network.node[14].content_store 	decision_yes[14] 	340
scalar geant_cost_network.node[14].content_store 	decision_no[14] 	34867
scalar geant_cost_network.node[14].content_store 	decision_ratio[14] 	0.0096571704490584
scalar geant_cost_network.node[15].core_layer 	interests[15] 	0
scalar geant_cost_network.node[15].core_layer 	data[15] 	0
scalar geant_cost_network.node[15].content_store 	p_hit[15] 	-nan
scalar geant_cost_network.node[15].content_store 	hits[15] 	0
scalar geant_cost_network.node[15].content_store 	misses[15] 	0
scalar geant_cost_network.node[15].content_store 	decision_yes[15] 	0
scalar geant_cost_network.node[15].content_store 	decision_no[15] 	0
scalar geant_cost_network.node[15].content_store 	decision_ratio[15] 	0
scalar geant_cost_network.node[16].core_layer 	interests[16] 	0
scalar geant_cost_network.node[16].core_layer 	data[16] 	0
scalar geant_cost_network.node[16].content_store 	p_hit[16] 	-nan
scalar geant_cost_network.node[16].content_store 	hits[16] 	0
scalar geant_cost_network.node[16].content_store 	misses[16] 	0
scalar geant_cost_network.node[16].content_store 	decision_yes[16] 	0
scalar geant_cost_network.node[16].content_store 	decision_no[16] 	0
scalar geant_cost_network.node[16].content_store 	decision_ratio[16] 	0
scalar geant_cost_network.node[17].core_layer 	interests[17] 	0
scalar geant_cost_network.node[17].core_layer 	data[17] 	0
scalar geant_cost_network.node[17].content_store 	p_hit[17] 	-nan
scalar geant_cost_network.node[17].content_store 	hits[17] 	0
scalar geant_cost_network.node[17].content_store 	misses[17] 	0
scalar geant_cost_network.node[17].content_store 	decision_yes[17] 	0
scalar geant_cost_network.node[17].content_store 	decision_no[17] 	0
scalar geant_cost_network.node[17].content_store 	decision_ratio[17] 	0
scalar geant_cost_network.node[18].core_layer 	interests[18] 	78240
scalar geant_cost_network.node[18].core_layer 	data[18] 	72642
scalar geant_cost_network.node[18].content_store 	p_hit[18] 	0.071549079754601
scalar geant_cost_network.node[18].content_store 	hits[18] 	5598
scalar geant_cost_network.node[18].content_store 	misses[18] 	72642
scalar geant_cost_network.node[18].content_store 	decision_yes[18] 	728
scalar geant_cost_network.node[18].content_store 	decision_no[18] 	71914
scalar geant_cost_network.node[18].content_store 	decision_ratio[18] 	0.010021750502464
scalar geant_cost_network.node[19].core_layer 	interests[19] 	0
scalar geant_cost_network.node[19].core_layer 	data[19] 	0
scalar geant_cost_network.node[19].content_store 	p_hit[19] 	-nan
scalar geant_cost_network.node[19].content_store 	hits[19] 	0
scalar geant_cost_network.node[19].content_store 	misses[19] 	0
scalar geant_cost_network.node[19].content_store 	decision_yes[19] 	0
scalar geant_cost_network.node[19].content_store 	decision_no[19] 	0
scalar geant_cost_network.node[19].content_store 	decision_ratio[19] 	0
scalar geant_cost_network.node[20].core_layer 	interests[20] 	179671
scalar geant_cost_network.node[20].core_layer 	data[20] 	120170
scalar geant_cost_network.node[20].content_store 	p_hit[20] 	0.33103839796072
scalar geant_cost_network.node[20].content_store 	hits[20] 	59478
scalar geant_cost_network.node[20].content_store 	misses[20] 	120193
scalar geant_cost_network.node[20].content_store 	decision_yes[20] 	1259
scalar geant_cost_network.node[20].content_store 	decision_no[20] 	118911
scalar geant_cost_network.node[20].content_store 	decision_ratio[20] 	0.010476824498627
scalar geant_cost_network.node[21].core_layer 	interests[21] 	177129
scalar geant_cost_network.node[21].core_layer 	data[21] 	164349
scalar geant_cost_network.node[21].content_store 	p_hit[21] 	0.072150805345257
scalar geant_cost_network.node[21].content_store 	hits[21] 	12780
scalar geant_cost_network.node[21].content_store 	misses[21] 	164349
scalar geant_cost_network.node[21].content_store 	decision_yes[21] 	1598
scalar geant_cost_network.node[21].content_store 	decision_no[21] 	162751
scalar geant_cost_network.node[21].content_store 	decision_ratio[21] 	0.0097232109717735
scalar geant_cost_network.node[22].core_layer 	interests[22] 	170762
scalar geant_cost_network.node[22].core_layer 	repo_load[22] 	170762
scalar geant_cost_network.node[22].core_layer 	data[22] 	0
scalar geant_cost_network.node[22].content_store 	p_hit[22] 	0
scalar geant_cost_network.node[22].content_store 	hits[22] 	0
scalar geant_cost_network.node[22].content_store 	misses[22] 	170762
scalar geant_cost_network.node[22].content_store 	decision_yes[22] 	0
scalar geant_cost_network.node[22].content_store 	decision_no[22] 	170762
scalar geant_cost_network.node[22].content_store 	decision_ratio[22] 	0
scalar geant_cost_network.node[23].core_layer 	interests[23] 	169788
scalar geant_cost_network.node[23].core_layer 	repo_load[23] 	169788
scalar geant_cost_network.node[23].core_layer 	data[23] 	0
scalar geant_cost_network.node[23].content_store 	p_hit[23] 	0
scalar geant_cost_network.node[23].content_store 	hits[23] 	0
scalar geant_cost_network.node[23].content_store 	misses[23] 	169788
scalar geant_cost_network.node[23].content_store 	decision_yes[23] 	0
scalar geant_cost_network.node[23].content_store 	decision_no[23] 	169788
scalar geant_cost_network.node[23].content_store 	decision_ratio[23] 	0
scalar geant_cost_network.node[24].core_layer 	interests[24] 	164349
scalar geant_cost_network.node[24].core_layer 	repo_load[24] 	164349
scalar geant_cost_network.node[24].core_layer 	data[24] 	0
scalar geant_cost_network.node[24].content_store 	p_hit[24] 	0
scalar geant_cost_network.node[24].content_store 	hits[24] 	0
scalar geant_cost_network.node[24].content_store 	misses[24] 	164349
scalar geant_cost_network.node[24].content_store 	decision_yes[24] 	0
scalar geant_cost_network.node[24].content_store 	decision_no[24] 	164349
scalar geant_cost_network.node[24].content_store 	decision_ratio[24] 	0
scalar geant_cost_network.client[5] 	hdistance[5] 	2.567166843309
scalar geant_cost_network.client[5] 	downloads[5] 	179270
scalar geant_cost_network.client[5] 	avg_time[5] 	0.006780594123
scalar geant_cost_network.client[5] 	interests_sent[5] 	179303
scalar geant_cost_network.client[9] 	hdistance[9] 	2.628896131027
scalar geant_cost_network.client[9] 	downloads[9] 	179505
scalar geant_cost_network.client[9] 	avg_time[9] 	0.002693042619
scalar geant_cost_network.client[9] 	interests_sent[9] 	179522
scalar geant_cost_network.client[10] 	hdistance[10] 	3.201374356811
scalar geant_cost_network.client[10] 	downloads[10] 	180157
scalar geant_cost_network.client[10] 	avg_time[10] 	0.003927734995
scalar geant_cost_network.client[10] 	interests_sent[10] 	180179
scalar geant_cost_network.client[12] 	hdistance[12] 	2.8195665951367
scalar geant_cost_network.client[12] 	downloads[12] 	179878
scalar geant_cost_network.client[12] 	avg_time[12] 	0.00323282267
scalar geant_cost_network.client[12] 	interests_sent[12] 	179898
scalar geant_cost_network.client[20] 	hdistance[20] 	2.8116038029925
scalar geant_cost_network.client[20] 	downloads[20] 	179648
scalar geant_cost_network.client[20] 	avg_time[20] 	0.004525292165
scalar geant_cost_network.client[20] 	interests_sent[20] 	179671
