version 2
run General-14-20140627-18:53:41-15284
attr D fix0.01
attr F spr
attr R lru
attr a 1
attr configname General
attr csize 1e3
attr ctlg 1e5
attr datetime 20140627-18:53:41
attr experiment General
attr inifile omnetpp.ini
attr iterationvars "$net=geant_cost, $rep=19, $priceratiovalue=10, $weights=0.333_0.333_0.334, $lambda=100, $a=1, $ctlg=1e5, $F=spr, $ttl=1000, $D=fix0.01, $xi=1, $R=lru, $csize=1e3, $pricebits=0, $window=60, $variance=0.05, $mytime=1800"
attr iterationvars2 "$net=geant_cost, $rep=19, $priceratiovalue=10, $weights=0.333_0.333_0.334, $lambda=100, $a=1, $ctlg=1e5, $F=spr, $ttl=1000, $D=fix0.01, $xi=1, $R=lru, $csize=1e3, $pricebits=0, $window=60, $variance=0.05, $mytime=1800, $repetition=0"
attr lambda 100
attr measurement "$net=geant_cost, $rep=19, $priceratiovalue=10, $weights=0.333_0.333_0.334, $lambda=100, $a=1, $ctlg=1e5, $F=spr, $ttl=1000, $D=fix0.01, $xi=1, $R=lru, $csize=1e3, $pricebits=0, $window=60, $variance=0.05, $mytime=1800"
attr mytime 1800
attr net geant_cost
attr network "networks.${net=geant_cost, abilene_cost}_network"
attr pricebits 0
attr priceratiovalue 10
attr processid 15284
attr rep 19
attr repetition 0
attr replication #0
attr resultdir results
attr runnumber 14
attr seedset 19
attr ttl 1000
attr variance 0.05
attr weights 0.333_0.333_0.334
attr window 60
attr xi 1

scalar . 	a 	1
scalar . 	csize 	1e3
scalar . 	ctlg 	1e5
scalar . 	lambda 	100
scalar . 	mytime 	1800
scalar . 	pricebits 	0
scalar . 	priceratiovalue 	10
scalar . 	rep 	19
scalar . 	ttl 	1000
scalar . 	variance 	0.05
scalar . 	window 	60
scalar . 	xi 	1
scalar geant_cost_network.content_distribution 	repo-0 	22
scalar geant_cost_network.content_distribution 	repo-1 	23
scalar geant_cost_network.content_distribution 	repo-2 	24
scalar geant_cost_network.content_distribution 	client-0 	20
scalar geant_cost_network.content_distribution 	client-1 	10
scalar geant_cost_network.content_distribution 	client-2 	12
scalar geant_cost_network.content_distribution 	client-3 	9
scalar geant_cost_network.content_distribution 	client-4 	5
scalar geant_cost_network.content_distribution 	repo-0_card 	33368
scalar geant_cost_network.content_distribution 	repo-1_card 	33389
scalar geant_cost_network.content_distribution 	repo-2_card 	33243
scalar geant_cost_network.statistics 	repo_popularity[0] 	0.2704974433948
scalar geant_cost_network.statistics 	repo_popularity[1] 	0.39472808551936
scalar geant_cost_network.statistics 	repo_popularity[2] 	0.33477447108584
scalar geant_cost_network.statistics 	stabilization_time 	36060
scalar geant_cost_network.node[7].face$o[4].channel 	price[7] 	0
scalar geant_cost_network.node[7].face$o[4].channel 	represented_price[7] 	0
scalar geant_cost_network.node[8].face$o[3].channel 	price[8] 	0
scalar geant_cost_network.node[8].face$o[3].channel 	represented_price[8] 	0
scalar geant_cost_network.node[21].face$o[5].channel 	price[21] 	0
scalar geant_cost_network.node[21].face$o[5].channel 	represented_price[21] 	0
scalar geant_cost_network.node[22].face$o[1].channel 	price[22] 	0
scalar geant_cost_network.node[22].face$o[1].channel 	represented_price[22] 	0
scalar geant_cost_network.node[23].face$o[1].channel 	price[23] 	1
scalar geant_cost_network.node[23].face$o[1].channel 	represented_price[23] 	1
scalar geant_cost_network.node[24].face$o[1].channel 	price[24] 	10
scalar geant_cost_network.node[24].face$o[1].channel 	represented_price[24] 	10
scalar geant_cost_network.statistics 	p_hit 	0.13451914760633
scalar geant_cost_network.statistics 	interests 	116731.04
scalar geant_cost_network.statistics 	data 	80762.24
scalar geant_cost_network.statistics 	hdistance 	2.8092489902238
scalar geant_cost_network.statistics 	avg_time 	0.004225344793
scalar geant_cost_network.statistics 	downloads 	899099
scalar geant_cost_network.statistics 	total_cost 	1773930
scalar geant_cost_network.statistics 	total_replicas 	100000
scalar geant_cost_network.statistics 	inner_hit 	0.43667048901178
scalar geant_cost_network.statistics 	interests_sent 	899223
scalar geant_cost_network.node[0].core_layer 	interests[0] 	0
scalar geant_cost_network.node[0].core_layer 	data[0] 	0
scalar geant_cost_network.node[0].core_layer 	repo_int[0] 	506489
scalar geant_cost_network.node[0].content_store 	p_hit[0] 	-nan
scalar geant_cost_network.node[0].content_store 	hits[0] 	0
scalar geant_cost_network.node[0].content_store 	misses[0] 	0
scalar geant_cost_network.node[0].content_store 	decision_yes[0] 	0
scalar geant_cost_network.node[0].content_store 	decision_no[0] 	0
scalar geant_cost_network.node[0].content_store 	decision_ratio[0] 	0
scalar geant_cost_network.node[1].core_layer 	interests[1] 	0
scalar geant_cost_network.node[1].core_layer 	data[1] 	0
scalar geant_cost_network.node[1].content_store 	p_hit[1] 	-nan
scalar geant_cost_network.node[1].content_store 	hits[1] 	0
scalar geant_cost_network.node[1].content_store 	misses[1] 	0
scalar geant_cost_network.node[1].content_store 	decision_yes[1] 	0
scalar geant_cost_network.node[1].content_store 	decision_no[1] 	0
scalar geant_cost_network.node[1].content_store 	decision_ratio[1] 	0
scalar geant_cost_network.node[2].core_layer 	interests[2] 	0
scalar geant_cost_network.node[2].core_layer 	data[2] 	0
scalar geant_cost_network.node[2].content_store 	p_hit[2] 	-nan
scalar geant_cost_network.node[2].content_store 	hits[2] 	0
scalar geant_cost_network.node[2].content_store 	misses[2] 	0
scalar geant_cost_network.node[2].content_store 	decision_yes[2] 	0
scalar geant_cost_network.node[2].content_store 	decision_no[2] 	0
scalar geant_cost_network.node[2].content_store 	decision_ratio[2] 	0
scalar geant_cost_network.node[3].core_layer 	interests[3] 	152198
scalar geant_cost_network.node[3].core_layer 	data[3] 	141761
scalar geant_cost_network.node[3].content_store 	p_hit[3] 	0.068575145534107
scalar geant_cost_network.node[3].content_store 	hits[3] 	10437
scalar geant_cost_network.node[3].content_store 	misses[3] 	141761
scalar geant_cost_network.node[3].content_store 	decision_yes[3] 	1473
scalar geant_cost_network.node[3].content_store 	decision_no[3] 	140288
scalar geant_cost_network.node[3].content_store 	decision_ratio[3] 	0.010390728056377
scalar geant_cost_network.node[4].core_layer 	interests[4] 	215856
scalar geant_cost_network.node[4].core_layer 	data[4] 	206983
scalar geant_cost_network.node[4].content_store 	p_hit[4] 	0.041096842339337
scalar geant_cost_network.node[4].content_store 	hits[4] 	8871
scalar geant_cost_network.node[4].content_store 	misses[4] 	206985
scalar geant_cost_network.node[4].content_store 	decision_yes[4] 	2048
scalar geant_cost_network.node[4].content_store 	decision_no[4] 	204935
scalar geant_cost_network.node[4].content_store 	decision_ratio[4] 	0.0098945324012117
scalar geant_cost_network.node[5].core_layer 	interests[5] 	180220
scalar geant_cost_network.node[5].core_layer 	data[5] 	119735
scalar geant_cost_network.node[5].content_store 	p_hit[5] 	0.33536233492398
scalar geant_cost_network.node[5].content_store 	hits[5] 	60439
scalar geant_cost_network.node[5].content_store 	misses[5] 	119781
scalar geant_cost_network.node[5].content_store 	decision_yes[5] 	1154
scalar geant_cost_network.node[5].content_store 	decision_no[5] 	118581
scalar geant_cost_network.node[5].content_store 	decision_ratio[5] 	0.0096379504739633
scalar geant_cost_network.node[6].core_layer 	interests[6] 	80743
scalar geant_cost_network.node[6].core_layer 	data[6] 	73812
scalar geant_cost_network.node[6].content_store 	p_hit[6] 	0.085840258598269
scalar geant_cost_network.node[6].content_store 	hits[6] 	6931
scalar geant_cost_network.node[6].content_store 	misses[6] 	73812
scalar geant_cost_network.node[6].content_store 	decision_yes[6] 	716
scalar geant_cost_network.node[6].content_store 	decision_no[6] 	73096
scalar geant_cost_network.node[6].content_store 	decision_ratio[6] 	0.009700319731209
scalar geant_cost_network.node[7].core_layer 	interests[7] 	259283
scalar geant_cost_network.node[7].core_layer 	data[7] 	243724
scalar geant_cost_network.node[7].content_store 	p_hit[7] 	0.060003933925479
scalar geant_cost_network.node[7].content_store 	hits[7] 	15558
scalar geant_cost_network.node[7].content_store 	misses[7] 	243725
scalar geant_cost_network.node[7].content_store 	decision_yes[7] 	2409
scalar geant_cost_network.node[7].content_store 	decision_no[7] 	241315
scalar geant_cost_network.node[7].content_store 	decision_ratio[7] 	0.0098841312304082
scalar geant_cost_network.node[8].core_layer 	interests[8] 	271308
scalar geant_cost_network.node[8].core_layer 	data[8] 	252293
scalar geant_cost_network.node[8].content_store 	p_hit[8] 	0.070086396272871
scalar geant_cost_network.node[8].content_store 	hits[8] 	19015
scalar geant_cost_network.node[8].content_store 	misses[8] 	252293
scalar geant_cost_network.node[8].content_store 	decision_yes[8] 	2454
scalar geant_cost_network.node[8].content_store 	decision_no[8] 	249839
scalar geant_cost_network.node[8].content_store 	decision_ratio[8] 	0.0097267859195459
scalar geant_cost_network.node[9].core_layer 	interests[9] 	341985
scalar geant_cost_network.node[9].core_layer 	data[9] 	278363
scalar geant_cost_network.node[9].content_store 	p_hit[9] 	0.18593213152624
scalar geant_cost_network.node[9].content_store 	hits[9] 	63586
scalar geant_cost_network.node[9].content_store 	misses[9] 	278399
scalar geant_cost_network.node[9].content_store 	decision_yes[9] 	2839
scalar geant_cost_network.node[9].content_store 	decision_no[9] 	275524
scalar geant_cost_network.node[9].content_store 	decision_ratio[9] 	0.010198912930239
scalar geant_cost_network.node[10].core_layer 	interests[10] 	179918
scalar geant_cost_network.node[10].core_layer 	data[10] 	119886
scalar geant_cost_network.node[10].content_store 	p_hit[10] 	0.33355750953212
scalar geant_cost_network.node[10].content_store 	hits[10] 	60013
scalar geant_cost_network.node[10].content_store 	misses[10] 	119905
scalar geant_cost_network.node[10].content_store 	decision_yes[10] 	1211
scalar geant_cost_network.node[10].content_store 	decision_no[10] 	118675
scalar geant_cost_network.node[10].content_store 	decision_ratio[10] 	0.01010126286639
scalar geant_cost_network.node[11].core_layer 	interests[11] 	0
scalar geant_cost_network.node[11].core_layer 	data[11] 	0
scalar geant_cost_network.node[11].content_store 	p_hit[11] 	-nan
scalar geant_cost_network.node[11].content_store 	hits[11] 	0
scalar geant_cost_network.node[11].content_store 	misses[11] 	0
scalar geant_cost_network.node[11].content_store 	decision_yes[11] 	0
scalar geant_cost_network.node[11].content_store 	decision_no[11] 	0
scalar geant_cost_network.node[11].content_store 	decision_ratio[11] 	0
scalar geant_cost_network.node[12].core_layer 	interests[12] 	258059
scalar geant_cost_network.node[12].core_layer 	data[12] 	194351
scalar geant_cost_network.node[12].content_store 	p_hit[12] 	0.24671102344813
scalar geant_cost_network.node[12].content_store 	hits[12] 	63666
scalar geant_cost_network.node[12].content_store 	misses[12] 	194393
scalar geant_cost_network.node[12].content_store 	decision_yes[12] 	2010
scalar geant_cost_network.node[12].content_store 	decision_no[12] 	192341
scalar geant_cost_network.node[12].content_store 	decision_ratio[12] 	0.010342112981153
scalar geant_cost_network.node[13].core_layer 	interests[13] 	0
scalar geant_cost_network.node[13].core_layer 	data[13] 	0
scalar geant_cost_network.node[13].content_store 	p_hit[13] 	-nan
scalar geant_cost_network.node[13].content_store 	hits[13] 	0
scalar geant_cost_network.node[13].content_store 	misses[13] 	0
scalar geant_cost_network.node[13].content_store 	decision_yes[13] 	0
scalar geant_cost_network.node[13].content_store 	decision_no[13] 	0
scalar geant_cost_network.node[13].content_store 	decision_ratio[13] 	0
scalar geant_cost_network.node[14].core_layer 	interests[14] 	38992
scalar geant_cost_network.node[14].core_layer 	data[14] 	34571
scalar geant_cost_network.node[14].content_store 	p_hit[14] 	0.11338223225277
scalar geant_cost_network.node[14].content_store 	hits[14] 	4421
scalar geant_cost_network.node[14].content_store 	misses[14] 	34571
scalar geant_cost_network.node[14].content_store 	decision_yes[14] 	364
scalar geant_cost_network.node[14].content_store 	decision_no[14] 	34207
scalar geant_cost_network.node[14].content_store 	decision_ratio[14] 	0.010529056145324
scalar geant_cost_network.node[15].core_layer 	interests[15] 	0
scalar geant_cost_network.node[15].core_layer 	data[15] 	0
scalar geant_cost_network.node[15].content_store 	p_hit[15] 	-nan
scalar geant_cost_network.node[15].content_store 	hits[15] 	0
scalar geant_cost_network.node[15].content_store 	misses[15] 	0
scalar geant_cost_network.node[15].content_store 	decision_yes[15] 	0
scalar geant_cost_network.node[15].content_store 	decision_no[15] 	0
scalar geant_cost_network.node[15].content_store 	decision_ratio[15] 	0
scalar geant_cost_network.node[16].core_layer 	interests[16] 	0
scalar geant_cost_network.node[16].core_layer 	data[16] 	0
scalar geant_cost_network.node[16].content_store 	p_hit[16] 	-nan
scalar geant_cost_network.node[16].content_store 	hits[16] 	0
scalar geant_cost_network.node[16].content_store 	misses[16] 	0
scalar geant_cost_network.node[16].content_store 	decision_yes[16] 	0
scalar geant_cost_network.node[16].content_store 	decision_no[16] 	0
scalar geant_cost_network.node[16].content_store 	decision_ratio[16] 	0
scalar geant_cost_network.node[17].core_layer 	interests[17] 	0
scalar geant_cost_network.node[17].core_layer 	data[17] 	0
scalar geant_cost_network.node[17].content_store 	p_hit[17] 	-nan
scalar geant_cost_network.node[17].content_store 	hits[17] 	0
scalar geant_cost_network.node[17].content_store 	misses[17] 	0
scalar geant_cost_network.node[17].content_store 	decision_yes[17] 	0
scalar geant_cost_network.node[17].content_store 	decision_no[17] 	0
scalar geant_cost_network.node[17].content_store 	decision_ratio[17] 	0
scalar geant_cost_network.node[18].core_layer 	interests[18] 	80660
scalar geant_cost_network.node[18].core_layer 	data[18] 	74094
scalar geant_cost_network.node[18].content_store 	p_hit[18] 	0.081403421770394
scalar geant_cost_network.node[18].content_store 	hits[18] 	6566
scalar geant_cost_network.node[18].content_store 	misses[18] 	74094
scalar geant_cost_network.node[18].content_store 	decision_yes[18] 	784
scalar geant_cost_network.node[18].content_store 	decision_no[18] 	73310
scalar geant_cost_network.node[18].content_store 	decision_ratio[18] 	0.010581153669663
scalar geant_cost_network.node[19].core_layer 	interests[19] 	0
scalar geant_cost_network.node[19].core_layer 	data[19] 	0
scalar geant_cost_network.node[19].content_store 	p_hit[19] 	-nan
scalar geant_cost_network.node[19].content_store 	hits[19] 	0
scalar geant_cost_network.node[19].content_store 	misses[19] 	0
scalar geant_cost_network.node[19].content_store 	decision_yes[19] 	0
scalar geant_cost_network.node[19].content_store 	decision_no[19] 	0
scalar geant_cost_network.node[19].content_store 	decision_ratio[19] 	0
scalar geant_cost_network.node[20].core_layer 	interests[20] 	179961
scalar geant_cost_network.node[20].core_layer 	data[20] 	119557
scalar geant_cost_network.node[20].content_store 	p_hit[20] 	0.3355338101033
scalar geant_cost_network.node[20].content_store 	hits[20] 	60383
scalar geant_cost_network.node[20].content_store 	misses[20] 	119578
scalar geant_cost_network.node[20].content_store 	decision_yes[20] 	1256
scalar geant_cost_network.node[20].content_store 	decision_no[20] 	118301
scalar geant_cost_network.node[20].content_store 	decision_ratio[20] 	0.010505449283605
scalar geant_cost_network.node[21].core_layer 	interests[21] 	172604
scalar geant_cost_network.node[21].core_layer 	data[21] 	159926
scalar geant_cost_network.node[21].content_store 	p_hit[21] 	0.073451368450326
scalar geant_cost_network.node[21].content_store 	hits[21] 	12678
scalar geant_cost_network.node[21].content_store 	misses[21] 	159926
scalar geant_cost_network.node[21].content_store 	decision_yes[21] 	1568
scalar geant_cost_network.node[21].content_store 	decision_no[21] 	158358
scalar geant_cost_network.node[21].content_store 	decision_ratio[21] 	0.0098045345972512
scalar geant_cost_network.node[22].core_layer 	interests[22] 	171893
scalar geant_cost_network.node[22].core_layer 	repo_load[22] 	171893
scalar geant_cost_network.node[22].core_layer 	data[22] 	0
scalar geant_cost_network.node[22].content_store 	p_hit[22] 	0
scalar geant_cost_network.node[22].content_store 	hits[22] 	0
scalar geant_cost_network.node[22].content_store 	misses[22] 	171893
scalar geant_cost_network.node[22].content_store 	decision_yes[22] 	0
scalar geant_cost_network.node[22].content_store 	decision_no[22] 	171893
scalar geant_cost_network.node[22].content_store 	decision_ratio[22] 	0
scalar geant_cost_network.node[23].core_layer 	interests[23] 	174670
scalar geant_cost_network.node[23].core_layer 	repo_load[23] 	174670
scalar geant_cost_network.node[23].core_layer 	data[23] 	0
scalar geant_cost_network.node[23].content_store 	p_hit[23] 	0
scalar geant_cost_network.node[23].content_store 	hits[23] 	0
scalar geant_cost_network.node[23].content_store 	misses[23] 	174670
scalar geant_cost_network.node[23].content_store 	decision_yes[23] 	0
scalar geant_cost_network.node[23].content_store 	decision_no[23] 	174670
scalar geant_cost_network.node[23].content_store 	decision_ratio[23] 	0
scalar geant_cost_network.node[24].core_layer 	interests[24] 	159926
scalar geant_cost_network.node[24].core_layer 	repo_load[24] 	159926
scalar geant_cost_network.node[24].core_layer 	data[24] 	0
scalar geant_cost_network.node[24].content_store 	p_hit[24] 	0
scalar geant_cost_network.node[24].content_store 	hits[24] 	0
scalar geant_cost_network.node[24].content_store 	misses[24] 	159926
scalar geant_cost_network.node[24].content_store 	decision_yes[24] 	0
scalar geant_cost_network.node[24].content_store 	decision_no[24] 	159926
scalar geant_cost_network.node[24].content_store 	decision_ratio[24] 	0
scalar geant_cost_network.client[5] 	hdistance[5] 	2.5739118851777
scalar geant_cost_network.client[5] 	downloads[5] 	180174
scalar geant_cost_network.client[5] 	avg_time[5] 	0.006750098445
scalar geant_cost_network.client[5] 	interests_sent[5] 	180220
scalar geant_cost_network.client[9] 	hdistance[9] 	2.6503073280796
scalar geant_cost_network.client[9] 	downloads[9] 	179938
scalar geant_cost_network.client[9] 	avg_time[9] 	0.002680081498
scalar geant_cost_network.client[9] 	interests_sent[9] 	179949
scalar geant_cost_network.client[10] 	hdistance[10] 	3.1951039194214
scalar geant_cost_network.client[10] 	downloads[10] 	179899
scalar geant_cost_network.client[10] 	avg_time[10] 	0.00388744294
scalar geant_cost_network.client[10] 	interests_sent[10] 	179918
scalar geant_cost_network.client[12] 	hdistance[12] 	2.8236262754817
scalar geant_cost_network.client[12] 	downloads[12] 	179148
scalar geant_cost_network.client[12] 	avg_time[12] 	0.003222829521
scalar geant_cost_network.client[12] 	interests_sent[12] 	179175
scalar geant_cost_network.client[20] 	hdistance[20] 	2.8032955429588
scalar geant_cost_network.client[20] 	downloads[20] 	179940
scalar geant_cost_network.client[20] 	avg_time[20] 	0.004586271565
scalar geant_cost_network.client[20] 	interests_sent[20] 	179961
