version 2
run General-6-20140618-15:57:55-16894
attr D fix0.00001
attr F spr
attr R lru
attr a 1
attr configname General
attr csize 1e3
attr ctlg 1e5
attr datetime 20140618-15:57:55
attr experiment General
attr inifile omnetpp.ini
attr iterationvars "$net=abilene_cost, $rep=1, $priceratiovalue=10, $weights=0.333_0.333_0.334, $lambda=100, $a=1, $ctlg=1e5, $F=spr, $ttl=1000, $D=fix0.00001, $xi=1, $R=lru, $csize=1e3, $pricebits=0, $mytime=1800"
attr iterationvars2 "$net=abilene_cost, $rep=1, $priceratiovalue=10, $weights=0.333_0.333_0.334, $lambda=100, $a=1, $ctlg=1e5, $F=spr, $ttl=1000, $D=fix0.00001, $xi=1, $R=lru, $csize=1e3, $pricebits=0, $mytime=1800, $repetition=0"
attr lambda 100
attr measurement "$net=abilene_cost, $rep=1, $priceratiovalue=10, $weights=0.333_0.333_0.334, $lambda=100, $a=1, $ctlg=1e5, $F=spr, $ttl=1000, $D=fix0.00001, $xi=1, $R=lru, $csize=1e3, $pricebits=0, $mytime=1800"
attr mytime 1800
attr net abilene_cost
attr network networks.${net=abilene_cost}_network
attr pricebits 0
attr priceratiovalue 10
attr processid 16894
attr rep 1
attr repetition 0
attr replication #0
attr resultdir results
attr runnumber 6
attr seedset 1
attr ttl 1000
attr weights 0.333_0.333_0.334
attr xi 1

scalar . 	a 	1
scalar . 	csize 	1e3
scalar . 	ctlg 	1e5
scalar . 	lambda 	100
scalar . 	mytime 	1800
scalar . 	pricebits 	0
scalar . 	priceratiovalue 	10
scalar . 	rep 	1
scalar . 	ttl 	1000
scalar . 	xi 	1
scalar abilene_cost_network.content_distribution 	repo-0 	11
scalar abilene_cost_network.content_distribution 	repo-1 	12
scalar abilene_cost_network.content_distribution 	repo-2 	13
scalar abilene_cost_network.content_distribution 	client-0 	3
scalar abilene_cost_network.content_distribution 	client-1 	7
scalar abilene_cost_network.content_distribution 	client-2 	10
scalar abilene_cost_network.content_distribution 	repo-0_card 	33396
scalar abilene_cost_network.content_distribution 	repo-1_card 	33039
scalar abilene_cost_network.content_distribution 	repo-2_card 	33565
scalar abilene_cost_network.statistics 	repo_popularity[0] 	0.28686251265602
scalar abilene_cost_network.statistics 	repo_popularity[1] 	0.2886063426465
scalar abilene_cost_network.statistics 	repo_popularity[2] 	0.42453114469748
scalar abilene_cost_network.statistics 	stabilization_time 	36060
scalar abilene_cost_network.node[0].face$o[3].channel 	price[0] 	0
scalar abilene_cost_network.node[0].face$o[3].channel 	represented_price[0] 	0
scalar abilene_cost_network.node[5].face$o[3].channel 	price[5] 	0
scalar abilene_cost_network.node[5].face$o[3].channel 	represented_price[5] 	0
scalar abilene_cost_network.node[9].face$o[3].channel 	price[9] 	0
scalar abilene_cost_network.node[9].face$o[3].channel 	represented_price[9] 	0
scalar abilene_cost_network.node[11].face$o[1].channel 	price[11] 	0
scalar abilene_cost_network.node[11].face$o[1].channel 	represented_price[11] 	0
scalar abilene_cost_network.node[12].face$o[1].channel 	price[12] 	1
scalar abilene_cost_network.node[12].face$o[1].channel 	represented_price[12] 	1
scalar abilene_cost_network.node[13].face$o[1].channel 	price[13] 	10
scalar abilene_cost_network.node[13].face$o[1].channel 	represented_price[13] 	10
scalar abilene_cost_network.statistics 	p_hit 	0.094225524272006
scalar abilene_cost_network.statistics 	interests 	137442.28571429
scalar abilene_cost_network.statistics 	data 	98938.642857143
scalar abilene_cost_network.statistics 	hdistance 	3.2332863471768
scalar abilene_cost_network.statistics 	avg_time 	0
scalar abilene_cost_network.statistics 	downloads 	539051
scalar abilene_cost_network.statistics 	total_cost 	1280181
scalar abilene_cost_network.statistics 	total_replicas 	100000
scalar abilene_cost_network.statistics 	inner_hit 	0.33634665365615
scalar abilene_cost_network.statistics 	interests_sent 	539051
scalar abilene_cost_network.node[0].core_layer 	interests[0] 	133637
scalar abilene_cost_network.node[0].core_layer 	data[0] 	125189
scalar abilene_cost_network.node[0].core_layer 	repo_int[0] 	357743
scalar abilene_cost_network.node[0].content_store 	p_hit[0] 	0.063216025501919
scalar abilene_cost_network.node[0].content_store 	hits[0] 	8448
scalar abilene_cost_network.node[0].content_store 	misses[0] 	125189
scalar abilene_cost_network.node[0].content_store 	decision_yes[0] 	2
scalar abilene_cost_network.node[0].content_store 	decision_no[0] 	125187
scalar abilene_cost_network.node[0].content_store 	decision_ratio[0] 	1.5975844523081e-05
scalar abilene_cost_network.node[1].core_layer 	interests[1] 	92676
scalar abilene_cost_network.node[1].core_layer 	data[1] 	88699
scalar abilene_cost_network.node[1].content_store 	p_hit[1] 	0.042912944020027
scalar abilene_cost_network.node[1].content_store 	hits[1] 	3977
scalar abilene_cost_network.node[1].content_store 	misses[1] 	88699
scalar abilene_cost_network.node[1].content_store 	decision_yes[1] 	1
scalar abilene_cost_network.node[1].content_store 	decision_no[1] 	88698
scalar abilene_cost_network.node[1].content_store 	decision_ratio[1] 	1.1274084262506e-05
scalar abilene_cost_network.node[2].core_layer 	interests[2] 	89891
scalar abilene_cost_network.node[2].core_layer 	data[2] 	89357
scalar abilene_cost_network.node[2].content_store 	p_hit[2] 	0.005940527972767
scalar abilene_cost_network.node[2].content_store 	hits[2] 	534
scalar abilene_cost_network.node[2].content_store 	misses[2] 	89357
scalar abilene_cost_network.node[2].content_store 	decision_yes[2] 	2
scalar abilene_cost_network.node[2].content_store 	decision_no[2] 	89355
scalar abilene_cost_network.node[2].content_store 	decision_ratio[2] 	2.2382130107322e-05
scalar abilene_cost_network.node[3].core_layer 	interests[3] 	221331
scalar abilene_cost_network.node[3].core_layer 	data[3] 	193499
scalar abilene_cost_network.node[3].content_store 	p_hit[3] 	0.12574831361174
scalar abilene_cost_network.node[3].content_store 	hits[3] 	27832
scalar abilene_cost_network.node[3].content_store 	misses[3] 	193499
scalar abilene_cost_network.node[3].content_store 	decision_yes[3] 	2
scalar abilene_cost_network.node[3].content_store 	decision_no[3] 	193497
scalar abilene_cost_network.node[3].content_store 	decision_ratio[3] 	1.0335970728531e-05
scalar abilene_cost_network.node[4].core_layer 	interests[4] 	81603
scalar abilene_cost_network.node[4].core_layer 	data[4] 	77282
scalar abilene_cost_network.node[4].content_store 	p_hit[4] 	0.052951484626791
scalar abilene_cost_network.node[4].content_store 	hits[4] 	4321
scalar abilene_cost_network.node[4].content_store 	misses[4] 	77282
scalar abilene_cost_network.node[4].content_store 	decision_yes[4] 	0
scalar abilene_cost_network.node[4].content_store 	decision_no[4] 	77282
scalar abilene_cost_network.node[4].content_store 	decision_ratio[4] 	0
scalar abilene_cost_network.node[5].core_layer 	interests[5] 	120950
scalar abilene_cost_network.node[5].core_layer 	data[5] 	116151
scalar abilene_cost_network.node[5].content_store 	p_hit[5] 	0.03967755270773
scalar abilene_cost_network.node[5].content_store 	hits[5] 	4799
scalar abilene_cost_network.node[5].content_store 	misses[5] 	116151
scalar abilene_cost_network.node[5].content_store 	decision_yes[5] 	0
scalar abilene_cost_network.node[5].content_store 	decision_no[5] 	116151
scalar abilene_cost_network.node[5].content_store 	decision_ratio[5] 	0
scalar abilene_cost_network.node[6].core_layer 	interests[6] 	44854
scalar abilene_cost_network.node[6].core_layer 	data[6] 	43668
scalar abilene_cost_network.node[6].content_store 	p_hit[6] 	0.026441343024034
scalar abilene_cost_network.node[6].content_store 	hits[6] 	1186
scalar abilene_cost_network.node[6].content_store 	misses[6] 	43668
scalar abilene_cost_network.node[6].content_store 	decision_yes[6] 	2
scalar abilene_cost_network.node[6].content_store 	decision_no[6] 	43666
scalar abilene_cost_network.node[6].content_store 	decision_ratio[6] 	4.5800128240359e-05
scalar abilene_cost_network.node[7].core_layer 	interests[7] 	243468
scalar abilene_cost_network.node[7].core_layer 	data[7] 	185237
scalar abilene_cost_network.node[7].content_store 	p_hit[7] 	0.23917311515271
scalar abilene_cost_network.node[7].content_store 	hits[7] 	58231
scalar abilene_cost_network.node[7].content_store 	misses[7] 	185237
scalar abilene_cost_network.node[7].content_store 	decision_yes[7] 	0
scalar abilene_cost_network.node[7].content_store 	decision_no[7] 	185237
scalar abilene_cost_network.node[7].content_store 	decision_ratio[7] 	0
scalar abilene_cost_network.node[8].core_layer 	interests[8] 	140383
scalar abilene_cost_network.node[8].core_layer 	data[8] 	125101
scalar abilene_cost_network.node[8].content_store 	p_hit[8] 	0.10885933481974
scalar abilene_cost_network.node[8].content_store 	hits[8] 	15282
scalar abilene_cost_network.node[8].content_store 	misses[8] 	125101
scalar abilene_cost_network.node[8].content_store 	decision_yes[8] 	5
scalar abilene_cost_network.node[8].content_store 	decision_no[8] 	125096
scalar abilene_cost_network.node[8].content_store 	decision_ratio[8] 	3.9967706093476e-05
scalar abilene_cost_network.node[9].core_layer 	interests[9] 	175855
scalar abilene_cost_network.node[9].core_layer 	data[9] 	158387
scalar abilene_cost_network.node[9].content_store 	p_hit[9] 	0.099331835887521
scalar abilene_cost_network.node[9].content_store 	hits[9] 	17468
scalar abilene_cost_network.node[9].content_store 	misses[9] 	158387
scalar abilene_cost_network.node[9].content_store 	decision_yes[9] 	5
scalar abilene_cost_network.node[9].content_store 	decision_no[9] 	158382
scalar abilene_cost_network.node[9].content_store 	decision_ratio[9] 	3.1568247394041e-05
scalar abilene_cost_network.node[10].core_layer 	interests[10] 	221801
scalar abilene_cost_network.node[10].core_layer 	data[10] 	182571
scalar abilene_cost_network.node[10].content_store 	p_hit[10] 	0.17687025757323
scalar abilene_cost_network.node[10].content_store 	hits[10] 	39230
scalar abilene_cost_network.node[10].content_store 	misses[10] 	182571
scalar abilene_cost_network.node[10].content_store 	decision_yes[10] 	3
scalar abilene_cost_network.node[10].content_store 	decision_no[10] 	182568
scalar abilene_cost_network.node[10].content_store 	decision_ratio[10] 	1.6431963455313e-05
scalar abilene_cost_network.node[11].core_layer 	interests[11] 	125189
scalar abilene_cost_network.node[11].core_layer 	repo_load[11] 	125189
scalar abilene_cost_network.node[11].core_layer 	data[11] 	0
scalar abilene_cost_network.node[11].content_store 	p_hit[11] 	0
scalar abilene_cost_network.node[11].content_store 	hits[11] 	0
scalar abilene_cost_network.node[11].content_store 	misses[11] 	125189
scalar abilene_cost_network.node[11].content_store 	decision_yes[11] 	0
scalar abilene_cost_network.node[11].content_store 	decision_no[11] 	125189
scalar abilene_cost_network.node[11].content_store 	decision_ratio[11] 	0
scalar abilene_cost_network.node[12].core_layer 	interests[12] 	116151
scalar abilene_cost_network.node[12].core_layer 	repo_load[12] 	116151
scalar abilene_cost_network.node[12].core_layer 	data[12] 	0
scalar abilene_cost_network.node[12].content_store 	p_hit[12] 	0
scalar abilene_cost_network.node[12].content_store 	hits[12] 	0
scalar abilene_cost_network.node[12].content_store 	misses[12] 	116151
scalar abilene_cost_network.node[12].content_store 	decision_yes[12] 	0
scalar abilene_cost_network.node[12].content_store 	decision_no[12] 	116151
scalar abilene_cost_network.node[12].content_store 	decision_ratio[12] 	0
scalar abilene_cost_network.node[13].core_layer 	interests[13] 	116403
scalar abilene_cost_network.node[13].core_layer 	repo_load[13] 	116403
scalar abilene_cost_network.node[13].core_layer 	data[13] 	0
scalar abilene_cost_network.node[13].content_store 	p_hit[13] 	0
scalar abilene_cost_network.node[13].content_store 	hits[13] 	0
scalar abilene_cost_network.node[13].content_store 	misses[13] 	116403
scalar abilene_cost_network.node[13].content_store 	decision_yes[13] 	0
scalar abilene_cost_network.node[13].content_store 	decision_no[13] 	116403
scalar abilene_cost_network.node[13].content_store 	decision_ratio[13] 	0
scalar abilene_cost_network.client[3] 	hdistance[3] 	3.3987062252481
scalar abilene_cost_network.client[3] 	downloads[3] 	179784
scalar abilene_cost_network.client[3] 	avg_time[3] 	0
scalar abilene_cost_network.client[3] 	interests_sent[3] 	179784
scalar abilene_cost_network.client[7] 	hdistance[7] 	3.2790080802452
scalar abilene_cost_network.client[7] 	downloads[7] 	179450
scalar abilene_cost_network.client[7] 	avg_time[7] 	0
scalar abilene_cost_network.client[7] 	interests_sent[7] 	179450
scalar abilene_cost_network.client[10] 	hdistance[10] 	3.0221447360372
scalar abilene_cost_network.client[10] 	downloads[10] 	179817
scalar abilene_cost_network.client[10] 	avg_time[10] 	0
scalar abilene_cost_network.client[10] 	interests_sent[10] 	179817
