version 2
run General-26-20140627-19:05:11-22745
attr D fix0.01
attr F nrr
attr R lru
attr a 1
attr configname General
attr csize 1e3
attr ctlg 1e5
attr datetime 20140627-19:05:11
attr experiment General
attr inifile omnetpp.ini
attr iterationvars "$net=geant_cost, $rep=17, $priceratiovalue=10, $weights=0.333_0.333_0.334, $lambda=100, $a=1, $ctlg=1e5, $F=nrr, $ttl=1000, $D=fix0.01, $xi=1, $R=lru, $csize=1e3, $pricebits=0, $window=60, $variance=0.05, $mytime=1800"
attr iterationvars2 "$net=geant_cost, $rep=17, $priceratiovalue=10, $weights=0.333_0.333_0.334, $lambda=100, $a=1, $ctlg=1e5, $F=nrr, $ttl=1000, $D=fix0.01, $xi=1, $R=lru, $csize=1e3, $pricebits=0, $window=60, $variance=0.05, $mytime=1800, $repetition=0"
attr lambda 100
attr measurement "$net=geant_cost, $rep=17, $priceratiovalue=10, $weights=0.333_0.333_0.334, $lambda=100, $a=1, $ctlg=1e5, $F=nrr, $ttl=1000, $D=fix0.01, $xi=1, $R=lru, $csize=1e3, $pricebits=0, $window=60, $variance=0.05, $mytime=1800"
attr mytime 1800
attr net geant_cost
attr network "networks.${net=geant_cost, abilene_cost}_network"
attr pricebits 0
attr priceratiovalue 10
attr processid 22745
attr rep 17
attr repetition 0
attr replication #0
attr resultdir results
attr runnumber 26
attr seedset 17
attr ttl 1000
attr variance 0.05
attr weights 0.333_0.333_0.334
attr window 60
attr xi 1

scalar . 	a 	1
scalar . 	csize 	1e3
scalar . 	ctlg 	1e5
scalar . 	lambda 	100
scalar . 	mytime 	1800
scalar . 	pricebits 	0
scalar . 	priceratiovalue 	10
scalar . 	rep 	17
scalar . 	ttl 	1000
scalar . 	variance 	0.05
scalar . 	window 	60
scalar . 	xi 	1
scalar geant_cost_network.content_distribution 	repo-0 	22
scalar geant_cost_network.content_distribution 	repo-1 	23
scalar geant_cost_network.content_distribution 	repo-2 	24
scalar geant_cost_network.content_distribution 	client-0 	20
scalar geant_cost_network.content_distribution 	client-1 	10
scalar geant_cost_network.content_distribution 	client-2 	12
scalar geant_cost_network.content_distribution 	client-3 	9
scalar geant_cost_network.content_distribution 	client-4 	5
scalar geant_cost_network.content_distribution 	repo-0_card 	33432
scalar geant_cost_network.content_distribution 	repo-1_card 	33238
scalar geant_cost_network.content_distribution 	repo-2_card 	33330
scalar geant_cost_network.statistics 	repo_popularity[0] 	0.29357061690373
scalar geant_cost_network.statistics 	repo_popularity[1] 	0.31455664157995
scalar geant_cost_network.statistics 	repo_popularity[2] 	0.39187274151631
scalar geant_cost_network.statistics 	stabilization_time 	36060
scalar geant_cost_network.node[7].face$o[4].channel 	price[7] 	0
scalar geant_cost_network.node[7].face$o[4].channel 	represented_price[7] 	0
scalar geant_cost_network.node[8].face$o[3].channel 	price[8] 	0
scalar geant_cost_network.node[8].face$o[3].channel 	represented_price[8] 	0
scalar geant_cost_network.node[21].face$o[5].channel 	price[21] 	0
scalar geant_cost_network.node[21].face$o[5].channel 	represented_price[21] 	0
scalar geant_cost_network.node[22].face$o[1].channel 	price[22] 	0
scalar geant_cost_network.node[22].face$o[1].channel 	represented_price[22] 	0
scalar geant_cost_network.node[23].face$o[1].channel 	price[23] 	1
scalar geant_cost_network.node[23].face$o[1].channel 	represented_price[23] 	1
scalar geant_cost_network.node[24].face$o[1].channel 	price[24] 	10
scalar geant_cost_network.node[24].face$o[1].channel 	represented_price[24] 	10
scalar geant_cost_network.statistics 	p_hit 	0.15873630826962
scalar geant_cost_network.statistics 	interests 	114397.52
scalar geant_cost_network.statistics 	data 	78375.8
scalar geant_cost_network.statistics 	hdistance 	2.6719066598824
scalar geant_cost_network.statistics 	avg_time 	0.005947267865
scalar geant_cost_network.statistics 	downloads 	900276
scalar geant_cost_network.statistics 	total_cost 	1628598
scalar geant_cost_network.statistics 	total_replicas 	100000
scalar geant_cost_network.statistics 	inner_hit 	0.50459970053628
scalar geant_cost_network.statistics 	interests_sent 	900551
scalar geant_cost_network.node[0].core_layer 	interests[0] 	0
scalar geant_cost_network.node[0].core_layer 	data[0] 	0
scalar geant_cost_network.node[0].core_layer 	repo_int[0] 	445997
scalar geant_cost_network.node[0].content_store 	p_hit[0] 	-nan
scalar geant_cost_network.node[0].content_store 	hits[0] 	0
scalar geant_cost_network.node[0].content_store 	misses[0] 	0
scalar geant_cost_network.node[0].content_store 	decision_yes[0] 	0
scalar geant_cost_network.node[0].content_store 	decision_no[0] 	0
scalar geant_cost_network.node[0].content_store 	decision_ratio[0] 	0
scalar geant_cost_network.node[1].core_layer 	interests[1] 	0
scalar geant_cost_network.node[1].core_layer 	data[1] 	0
scalar geant_cost_network.node[1].content_store 	p_hit[1] 	-nan
scalar geant_cost_network.node[1].content_store 	hits[1] 	0
scalar geant_cost_network.node[1].content_store 	misses[1] 	0
scalar geant_cost_network.node[1].content_store 	decision_yes[1] 	0
scalar geant_cost_network.node[1].content_store 	decision_no[1] 	0
scalar geant_cost_network.node[1].content_store 	decision_ratio[1] 	0
scalar geant_cost_network.node[2].core_layer 	interests[2] 	0
scalar geant_cost_network.node[2].core_layer 	data[2] 	0
scalar geant_cost_network.node[2].content_store 	p_hit[2] 	-nan
scalar geant_cost_network.node[2].content_store 	hits[2] 	0
scalar geant_cost_network.node[2].content_store 	misses[2] 	0
scalar geant_cost_network.node[2].content_store 	decision_yes[2] 	0
scalar geant_cost_network.node[2].content_store 	decision_no[2] 	0
scalar geant_cost_network.node[2].content_store 	decision_ratio[2] 	0
scalar geant_cost_network.node[3].core_layer 	interests[3] 	164364
scalar geant_cost_network.node[3].core_layer 	data[3] 	140926
scalar geant_cost_network.node[3].content_store 	p_hit[3] 	0.14257988367282
scalar geant_cost_network.node[3].content_store 	hits[3] 	23435
scalar geant_cost_network.node[3].content_store 	misses[3] 	140929
scalar geant_cost_network.node[3].content_store 	decision_yes[3] 	1414
scalar geant_cost_network.node[3].content_store 	decision_no[3] 	139512
scalar geant_cost_network.node[3].content_store 	decision_ratio[3] 	0.010033634673517
scalar geant_cost_network.node[4].core_layer 	interests[4] 	199965
scalar geant_cost_network.node[4].core_layer 	data[4] 	190909
scalar geant_cost_network.node[4].content_store 	p_hit[4] 	0.045302928012402
scalar geant_cost_network.node[4].content_store 	hits[4] 	9059
scalar geant_cost_network.node[4].content_store 	misses[4] 	190906
scalar geant_cost_network.node[4].content_store 	decision_yes[4] 	1933
scalar geant_cost_network.node[4].content_store 	decision_no[4] 	188976
scalar geant_cost_network.node[4].content_store 	decision_ratio[4] 	0.010125242916782
scalar geant_cost_network.node[5].core_layer 	interests[5] 	188332
scalar geant_cost_network.node[5].core_layer 	data[5] 	125413
scalar geant_cost_network.node[5].content_store 	p_hit[5] 	0.33377758426608
scalar geant_cost_network.node[5].content_store 	hits[5] 	62861
scalar geant_cost_network.node[5].content_store 	misses[5] 	125471
scalar geant_cost_network.node[5].content_store 	decision_yes[5] 	1206
scalar geant_cost_network.node[5].content_store 	decision_no[5] 	124207
scalar geant_cost_network.node[5].content_store 	decision_ratio[5] 	0.009616227982745
scalar geant_cost_network.node[6].core_layer 	interests[6] 	70088
scalar geant_cost_network.node[6].core_layer 	data[6] 	61729
scalar geant_cost_network.node[6].content_store 	p_hit[6] 	0.11926435338432
scalar geant_cost_network.node[6].content_store 	hits[6] 	8359
scalar geant_cost_network.node[6].content_store 	misses[6] 	61729
scalar geant_cost_network.node[6].content_store 	decision_yes[6] 	616
scalar geant_cost_network.node[6].content_store 	decision_no[6] 	61113
scalar geant_cost_network.node[6].content_store 	decision_ratio[6] 	0.0099791022047984
scalar geant_cost_network.node[7].core_layer 	interests[7] 	217812
scalar geant_cost_network.node[7].core_layer 	data[7] 	211274
scalar geant_cost_network.node[7].content_store 	p_hit[7] 	0.03002130277487
scalar geant_cost_network.node[7].content_store 	hits[7] 	6539
scalar geant_cost_network.node[7].content_store 	misses[7] 	211273
scalar geant_cost_network.node[7].content_store 	decision_yes[7] 	2044
scalar geant_cost_network.node[7].content_store 	decision_no[7] 	209229
scalar geant_cost_network.node[7].content_store 	decision_ratio[7] 	0.009674686306343
scalar geant_cost_network.node[8].core_layer 	interests[8] 	228304
scalar geant_cost_network.node[8].core_layer 	data[8] 	219214
scalar geant_cost_network.node[8].content_store 	p_hit[8] 	0.039815333940711
scalar geant_cost_network.node[8].content_store 	hits[8] 	9090
scalar geant_cost_network.node[8].content_store 	misses[8] 	219214
scalar geant_cost_network.node[8].content_store 	decision_yes[8] 	2212
scalar geant_cost_network.node[8].content_store 	decision_no[8] 	217001
scalar geant_cost_network.node[8].content_store 	decision_ratio[8] 	0.010090642434527
scalar geant_cost_network.node[9].core_layer 	interests[9] 	346400
scalar geant_cost_network.node[9].core_layer 	data[9] 	273312
scalar geant_cost_network.node[9].content_store 	p_hit[9] 	0.21054561200924
scalar geant_cost_network.node[9].content_store 	hits[9] 	72933
scalar geant_cost_network.node[9].content_store 	misses[9] 	273467
scalar geant_cost_network.node[9].content_store 	decision_yes[9] 	2779
scalar geant_cost_network.node[9].content_store 	decision_no[9] 	270533
scalar geant_cost_network.node[9].content_store 	decision_ratio[9] 	0.010167866760333
scalar geant_cost_network.node[10].core_layer 	interests[10] 	190551
scalar geant_cost_network.node[10].core_layer 	data[10] 	121969
scalar geant_cost_network.node[10].content_store 	p_hit[10] 	0.35954154006014
scalar geant_cost_network.node[10].content_store 	hits[10] 	68511
scalar geant_cost_network.node[10].content_store 	misses[10] 	122040
scalar geant_cost_network.node[10].content_store 	decision_yes[10] 	1152
scalar geant_cost_network.node[10].content_store 	decision_no[10] 	120817
scalar geant_cost_network.node[10].content_store 	decision_ratio[10] 	0.0094450229156589
scalar geant_cost_network.node[11].core_layer 	interests[11] 	0
scalar geant_cost_network.node[11].core_layer 	data[11] 	0
scalar geant_cost_network.node[11].content_store 	p_hit[11] 	-nan
scalar geant_cost_network.node[11].content_store 	hits[11] 	0
scalar geant_cost_network.node[11].content_store 	misses[11] 	0
scalar geant_cost_network.node[11].content_store 	decision_yes[11] 	0
scalar geant_cost_network.node[11].content_store 	decision_no[11] 	0
scalar geant_cost_network.node[11].content_store 	decision_ratio[11] 	0
scalar geant_cost_network.node[12].core_layer 	interests[12] 	284682
scalar geant_cost_network.node[12].core_layer 	data[12] 	213761
scalar geant_cost_network.node[12].content_store 	p_hit[12] 	0.24828756296499
scalar geant_cost_network.node[12].content_store 	hits[12] 	70683
scalar geant_cost_network.node[12].content_store 	misses[12] 	213999
scalar geant_cost_network.node[12].content_store 	decision_yes[12] 	2103
scalar geant_cost_network.node[12].content_store 	decision_no[12] 	211658
scalar geant_cost_network.node[12].content_store 	decision_ratio[12] 	0.0098380902035451
scalar geant_cost_network.node[13].core_layer 	interests[13] 	28900
scalar geant_cost_network.node[13].core_layer 	data[13] 	6575
scalar geant_cost_network.node[13].content_store 	p_hit[13] 	0.77245674740484
scalar geant_cost_network.node[13].content_store 	hits[13] 	22324
scalar geant_cost_network.node[13].content_store 	misses[13] 	6576
scalar geant_cost_network.node[13].content_store 	decision_yes[13] 	80
scalar geant_cost_network.node[13].content_store 	decision_no[13] 	6495
scalar geant_cost_network.node[13].content_store 	decision_ratio[13] 	0.012167300380228
scalar geant_cost_network.node[14].core_layer 	interests[14] 	63405
scalar geant_cost_network.node[14].core_layer 	data[14] 	44572
scalar geant_cost_network.node[14].content_store 	p_hit[14] 	0.29674315905686
scalar geant_cost_network.node[14].content_store 	hits[14] 	18815
scalar geant_cost_network.node[14].content_store 	misses[14] 	44590
scalar geant_cost_network.node[14].content_store 	decision_yes[14] 	446
scalar geant_cost_network.node[14].content_store 	decision_no[14] 	44126
scalar geant_cost_network.node[14].content_store 	decision_ratio[14] 	0.010006281970744
scalar geant_cost_network.node[15].core_layer 	interests[15] 	0
scalar geant_cost_network.node[15].core_layer 	data[15] 	0
scalar geant_cost_network.node[15].content_store 	p_hit[15] 	-nan
scalar geant_cost_network.node[15].content_store 	hits[15] 	0
scalar geant_cost_network.node[15].content_store 	misses[15] 	0
scalar geant_cost_network.node[15].content_store 	decision_yes[15] 	0
scalar geant_cost_network.node[15].content_store 	decision_no[15] 	0
scalar geant_cost_network.node[15].content_store 	decision_ratio[15] 	0
scalar geant_cost_network.node[16].core_layer 	interests[16] 	0
scalar geant_cost_network.node[16].core_layer 	data[16] 	0
scalar geant_cost_network.node[16].content_store 	p_hit[16] 	-nan
scalar geant_cost_network.node[16].content_store 	hits[16] 	0
scalar geant_cost_network.node[16].content_store 	misses[16] 	0
scalar geant_cost_network.node[16].content_store 	decision_yes[16] 	0
scalar geant_cost_network.node[16].content_store 	decision_no[16] 	0
scalar geant_cost_network.node[16].content_store 	decision_ratio[16] 	0
scalar geant_cost_network.node[17].core_layer 	interests[17] 	0
scalar geant_cost_network.node[17].core_layer 	data[17] 	0
scalar geant_cost_network.node[17].content_store 	p_hit[17] 	-nan
scalar geant_cost_network.node[17].content_store 	hits[17] 	0
scalar geant_cost_network.node[17].content_store 	misses[17] 	0
scalar geant_cost_network.node[17].content_store 	decision_yes[17] 	0
scalar geant_cost_network.node[17].content_store 	decision_no[17] 	0
scalar geant_cost_network.node[17].content_store 	decision_ratio[17] 	0
scalar geant_cost_network.node[18].core_layer 	interests[18] 	95053
scalar geant_cost_network.node[18].core_layer 	data[18] 	81926
scalar geant_cost_network.node[18].content_store 	p_hit[18] 	0.13811242149117
scalar geant_cost_network.node[18].content_store 	hits[18] 	13128
scalar geant_cost_network.node[18].content_store 	misses[18] 	81925
scalar geant_cost_network.node[18].content_store 	decision_yes[18] 	790
scalar geant_cost_network.node[18].content_store 	decision_no[18] 	81136
scalar geant_cost_network.node[18].content_store 	decision_ratio[18] 	0.0096428484241877
scalar geant_cost_network.node[19].core_layer 	interests[19] 	0
scalar geant_cost_network.node[19].core_layer 	data[19] 	0
scalar geant_cost_network.node[19].content_store 	p_hit[19] 	-nan
scalar geant_cost_network.node[19].content_store 	hits[19] 	0
scalar geant_cost_network.node[19].content_store 	misses[19] 	0
scalar geant_cost_network.node[19].content_store 	decision_yes[19] 	0
scalar geant_cost_network.node[19].content_store 	decision_no[19] 	0
scalar geant_cost_network.node[19].content_store 	decision_ratio[19] 	0
scalar geant_cost_network.node[20].core_layer 	interests[20] 	181496
scalar geant_cost_network.node[20].core_layer 	data[20] 	120489
scalar geant_cost_network.node[20].content_store 	p_hit[20] 	0.33596332701547
scalar geant_cost_network.node[20].content_store 	hits[20] 	60976
scalar geant_cost_network.node[20].content_store 	misses[20] 	120520
scalar geant_cost_network.node[20].content_store 	decision_yes[20] 	1186
scalar geant_cost_network.node[20].content_store 	decision_no[20] 	119303
scalar geant_cost_network.node[20].content_store 	decision_ratio[20] 	0.0098432222028567
scalar geant_cost_network.node[21].core_layer 	interests[21] 	154589
scalar geant_cost_network.node[21].core_layer 	data[21] 	147326
scalar geant_cost_network.node[21].content_store 	p_hit[21] 	0.046982644301988
scalar geant_cost_network.node[21].content_store 	hits[21] 	7263
scalar geant_cost_network.node[21].content_store 	misses[21] 	147326
scalar geant_cost_network.node[21].content_store 	decision_yes[21] 	1472
scalar geant_cost_network.node[21].content_store 	decision_no[21] 	145854
scalar geant_cost_network.node[21].content_store 	decision_ratio[21] 	0.0099914475381128
scalar geant_cost_network.node[22].core_layer 	interests[22] 	143333
scalar geant_cost_network.node[22].core_layer 	repo_load[22] 	143333
scalar geant_cost_network.node[22].core_layer 	data[22] 	0
scalar geant_cost_network.node[22].content_store 	p_hit[22] 	0
scalar geant_cost_network.node[22].content_store 	hits[22] 	0
scalar geant_cost_network.node[22].content_store 	misses[22] 	143333
scalar geant_cost_network.node[22].content_store 	decision_yes[22] 	0
scalar geant_cost_network.node[22].content_store 	decision_no[22] 	143333
scalar geant_cost_network.node[22].content_store 	decision_ratio[22] 	0
scalar geant_cost_network.node[23].core_layer 	interests[23] 	155338
scalar geant_cost_network.node[23].core_layer 	repo_load[23] 	155338
scalar geant_cost_network.node[23].core_layer 	data[23] 	0
scalar geant_cost_network.node[23].content_store 	p_hit[23] 	0
scalar geant_cost_network.node[23].content_store 	hits[23] 	0
scalar geant_cost_network.node[23].content_store 	misses[23] 	155338
scalar geant_cost_network.node[23].content_store 	decision_yes[23] 	0
scalar geant_cost_network.node[23].content_store 	decision_no[23] 	155338
scalar geant_cost_network.node[23].content_store 	decision_ratio[23] 	0
scalar geant_cost_network.node[24].core_layer 	interests[24] 	147326
scalar geant_cost_network.node[24].core_layer 	repo_load[24] 	147326
scalar geant_cost_network.node[24].core_layer 	data[24] 	0
scalar geant_cost_network.node[24].content_store 	p_hit[24] 	0
scalar geant_cost_network.node[24].content_store 	hits[24] 	0
scalar geant_cost_network.node[24].content_store 	misses[24] 	147326
scalar geant_cost_network.node[24].content_store 	decision_yes[24] 	0
scalar geant_cost_network.node[24].content_store 	decision_no[24] 	147326
scalar geant_cost_network.node[24].content_store 	decision_ratio[24] 	0
scalar geant_cost_network.client[5] 	hdistance[5] 	2.4475494506718
scalar geant_cost_network.client[5] 	downloads[5] 	179674
scalar geant_cost_network.client[5] 	avg_time[5] 	0.007582370822
scalar geant_cost_network.client[5] 	interests_sent[5] 	179729
scalar geant_cost_network.client[9] 	hdistance[9] 	2.4826017145491
scalar geant_cost_network.client[9] 	downloads[9] 	179989
scalar geant_cost_network.client[9] 	avg_time[9] 	0.00489527553
scalar geant_cost_network.client[9] 	interests_sent[9] 	180046
scalar geant_cost_network.client[10] 	hdistance[10] 	3.1073886723609
scalar geant_cost_network.client[10] 	downloads[10] 	180885
scalar geant_cost_network.client[10] 	avg_time[10] 	0.006174192169
scalar geant_cost_network.client[10] 	interests_sent[10] 	180956
scalar geant_cost_network.client[12] 	hdistance[12] 	2.6052202465426
scalar geant_cost_network.client[12] 	downloads[12] 	179685
scalar geant_cost_network.client[12] 	avg_time[12] 	0.005743327036
scalar geant_cost_network.client[12] 	interests_sent[12] 	179746
scalar geant_cost_network.client[20] 	hdistance[20] 	2.7167732152874
scalar geant_cost_network.client[20] 	downloads[20] 	180043
scalar geant_cost_network.client[20] 	avg_time[20] 	0.005341173772
scalar geant_cost_network.client[20] 	interests_sent[20] 	180074
