version 2
run General-2-20140627-17:29:45-22475
attr D fix0.01
attr F nrr
attr R lru
attr a 1
attr configname General
attr csize 1e3
attr ctlg 1e5
attr datetime 20140627-17:29:45
attr experiment General
attr inifile omnetpp.ini
attr iterationvars "$net=geant_cost, $rep=14, $priceratiovalue=10, $weights=0.333_0.333_0.334, $lambda=100, $a=1, $ctlg=1e5, $F=nrr, $ttl=1000, $D=fix0.01, $xi=1, $R=lru, $csize=1e3, $pricebits=0, $window=60, $variance=0.05, $mytime=1800"
attr iterationvars2 "$net=geant_cost, $rep=14, $priceratiovalue=10, $weights=0.333_0.333_0.334, $lambda=100, $a=1, $ctlg=1e5, $F=nrr, $ttl=1000, $D=fix0.01, $xi=1, $R=lru, $csize=1e3, $pricebits=0, $window=60, $variance=0.05, $mytime=1800, $repetition=0"
attr lambda 100
attr measurement "$net=geant_cost, $rep=14, $priceratiovalue=10, $weights=0.333_0.333_0.334, $lambda=100, $a=1, $ctlg=1e5, $F=nrr, $ttl=1000, $D=fix0.01, $xi=1, $R=lru, $csize=1e3, $pricebits=0, $window=60, $variance=0.05, $mytime=1800"
attr mytime 1800
attr net geant_cost
attr network "networks.${net=geant_cost, abilene_cost}_network"
attr pricebits 0
attr priceratiovalue 10
attr processid 22475
attr rep 14
attr repetition 0
attr replication #0
attr resultdir results
attr runnumber 2
attr seedset 14
attr ttl 1000
attr variance 0.05
attr weights 0.333_0.333_0.334
attr window 60
attr xi 1

scalar . 	a 	1
scalar . 	csize 	1e3
scalar . 	ctlg 	1e5
scalar . 	lambda 	100
scalar . 	mytime 	1800
scalar . 	pricebits 	0
scalar . 	priceratiovalue 	10
scalar . 	rep 	14
scalar . 	ttl 	1000
scalar . 	variance 	0.05
scalar . 	window 	60
scalar . 	xi 	1
scalar geant_cost_network.content_distribution 	repo-0 	22
scalar geant_cost_network.content_distribution 	repo-1 	23
scalar geant_cost_network.content_distribution 	repo-2 	24
scalar geant_cost_network.content_distribution 	client-0 	20
scalar geant_cost_network.content_distribution 	client-1 	10
scalar geant_cost_network.content_distribution 	client-2 	12
scalar geant_cost_network.content_distribution 	client-3 	9
scalar geant_cost_network.content_distribution 	client-4 	5
scalar geant_cost_network.content_distribution 	repo-0_card 	32966
scalar geant_cost_network.content_distribution 	repo-1_card 	33555
scalar geant_cost_network.content_distribution 	repo-2_card 	33479
scalar geant_cost_network.statistics 	repo_popularity[0] 	0.41551934442987
scalar geant_cost_network.statistics 	repo_popularity[1] 	0.31847271720617
scalar geant_cost_network.statistics 	repo_popularity[2] 	0.26600793836396
scalar geant_cost_network.statistics 	stabilization_time 	36060
scalar geant_cost_network.node[7].face$o[4].channel 	price[7] 	0
scalar geant_cost_network.node[7].face$o[4].channel 	represented_price[7] 	0
scalar geant_cost_network.node[8].face$o[3].channel 	price[8] 	0
scalar geant_cost_network.node[8].face$o[3].channel 	represented_price[8] 	0
scalar geant_cost_network.node[21].face$o[5].channel 	price[21] 	0
scalar geant_cost_network.node[21].face$o[5].channel 	represented_price[21] 	0
scalar geant_cost_network.node[22].face$o[1].channel 	price[22] 	0
scalar geant_cost_network.node[22].face$o[1].channel 	represented_price[22] 	0
scalar geant_cost_network.node[23].face$o[1].channel 	price[23] 	1
scalar geant_cost_network.node[23].face$o[1].channel 	represented_price[23] 	1
scalar geant_cost_network.node[24].face$o[1].channel 	price[24] 	10
scalar geant_cost_network.node[24].face$o[1].channel 	represented_price[24] 	10
scalar geant_cost_network.statistics 	p_hit 	0.15936140144678
scalar geant_cost_network.statistics 	interests 	114350.4
scalar geant_cost_network.statistics 	data 	78294.72
scalar geant_cost_network.statistics 	hdistance 	2.666968626981
scalar geant_cost_network.statistics 	avg_time 	0.005984668148
scalar geant_cost_network.statistics 	downloads 	901135
scalar geant_cost_network.statistics 	total_cost 	1668996
scalar geant_cost_network.statistics 	total_replicas 	100000
scalar geant_cost_network.statistics 	inner_hit 	0.50587203915063
scalar geant_cost_network.statistics 	interests_sent 	901388
scalar geant_cost_network.node[0].core_layer 	interests[0] 	0
scalar geant_cost_network.node[0].core_layer 	data[0] 	0
scalar geant_cost_network.node[0].core_layer 	repo_int[0] 	445276
scalar geant_cost_network.node[0].content_store 	p_hit[0] 	-nan
scalar geant_cost_network.node[0].content_store 	hits[0] 	0
scalar geant_cost_network.node[0].content_store 	misses[0] 	0
scalar geant_cost_network.node[0].content_store 	decision_yes[0] 	0
scalar geant_cost_network.node[0].content_store 	decision_no[0] 	0
scalar geant_cost_network.node[0].content_store 	decision_ratio[0] 	0
scalar geant_cost_network.node[1].core_layer 	interests[1] 	0
scalar geant_cost_network.node[1].core_layer 	data[1] 	0
scalar geant_cost_network.node[1].content_store 	p_hit[1] 	-nan
scalar geant_cost_network.node[1].content_store 	hits[1] 	0
scalar geant_cost_network.node[1].content_store 	misses[1] 	0
scalar geant_cost_network.node[1].content_store 	decision_yes[1] 	0
scalar geant_cost_network.node[1].content_store 	decision_no[1] 	0
scalar geant_cost_network.node[1].content_store 	decision_ratio[1] 	0
scalar geant_cost_network.node[2].core_layer 	interests[2] 	0
scalar geant_cost_network.node[2].core_layer 	data[2] 	0
scalar geant_cost_network.node[2].content_store 	p_hit[2] 	-nan
scalar geant_cost_network.node[2].content_store 	hits[2] 	0
scalar geant_cost_network.node[2].content_store 	misses[2] 	0
scalar geant_cost_network.node[2].content_store 	decision_yes[2] 	0
scalar geant_cost_network.node[2].content_store 	decision_no[2] 	0
scalar geant_cost_network.node[2].content_store 	decision_ratio[2] 	0
scalar geant_cost_network.node[3].core_layer 	interests[3] 	166402
scalar geant_cost_network.node[3].core_layer 	data[3] 	143262
scalar geant_cost_network.node[3].content_store 	p_hit[3] 	0.13904279996635
scalar geant_cost_network.node[3].content_store 	hits[3] 	23137
scalar geant_cost_network.node[3].content_store 	misses[3] 	143265
scalar geant_cost_network.node[3].content_store 	decision_yes[3] 	1416
scalar geant_cost_network.node[3].content_store 	decision_no[3] 	141846
scalar geant_cost_network.node[3].content_store 	decision_ratio[3] 	0.0098839887758094
scalar geant_cost_network.node[4].core_layer 	interests[4] 	203111
scalar geant_cost_network.node[4].core_layer 	data[4] 	193481
scalar geant_cost_network.node[4].content_store 	p_hit[4] 	0.047412498584518
scalar geant_cost_network.node[4].content_store 	hits[4] 	9630
scalar geant_cost_network.node[4].content_store 	misses[4] 	193481
scalar geant_cost_network.node[4].content_store 	decision_yes[4] 	1975
scalar geant_cost_network.node[4].content_store 	decision_no[4] 	191506
scalar geant_cost_network.node[4].content_store 	decision_ratio[4] 	0.010207720654741
scalar geant_cost_network.node[5].core_layer 	interests[5] 	187542
scalar geant_cost_network.node[5].core_layer 	data[5] 	124755
scalar geant_cost_network.node[5].content_store 	p_hit[5] 	0.33454906101033
scalar geant_cost_network.node[5].content_store 	hits[5] 	62742
scalar geant_cost_network.node[5].content_store 	misses[5] 	124800
scalar geant_cost_network.node[5].content_store 	decision_yes[5] 	1245
scalar geant_cost_network.node[5].content_store 	decision_no[5] 	123510
scalar geant_cost_network.node[5].content_store 	decision_ratio[5] 	0.0099795599374775
scalar geant_cost_network.node[6].core_layer 	interests[6] 	68859
scalar geant_cost_network.node[6].core_layer 	data[6] 	61085
scalar geant_cost_network.node[6].content_store 	p_hit[6] 	0.11289736998795
scalar geant_cost_network.node[6].content_store 	hits[6] 	7774
scalar geant_cost_network.node[6].content_store 	misses[6] 	61085
scalar geant_cost_network.node[6].content_store 	decision_yes[6] 	623
scalar geant_cost_network.node[6].content_store 	decision_no[6] 	60462
scalar geant_cost_network.node[6].content_store 	decision_ratio[6] 	0.010198903167717
scalar geant_cost_network.node[7].core_layer 	interests[7] 	217524
scalar geant_cost_network.node[7].core_layer 	data[7] 	210078
scalar geant_cost_network.node[7].content_store 	p_hit[7] 	0.034226108383443
scalar geant_cost_network.node[7].content_store 	hits[7] 	7445
scalar geant_cost_network.node[7].content_store 	misses[7] 	210079
scalar geant_cost_network.node[7].content_store 	decision_yes[7] 	2044
scalar geant_cost_network.node[7].content_store 	decision_no[7] 	208034
scalar geant_cost_network.node[7].content_store 	decision_ratio[7] 	0.0097297194375422
scalar geant_cost_network.node[8].core_layer 	interests[8] 	220904
scalar geant_cost_network.node[8].core_layer 	data[8] 	212401
scalar geant_cost_network.node[8].content_store 	p_hit[8] 	0.038491833556658
scalar geant_cost_network.node[8].content_store 	hits[8] 	8503
scalar geant_cost_network.node[8].content_store 	misses[8] 	212401
scalar geant_cost_network.node[8].content_store 	decision_yes[8] 	2164
scalar geant_cost_network.node[8].content_store 	decision_no[8] 	210237
scalar geant_cost_network.node[8].content_store 	decision_ratio[8] 	0.010188275949737
scalar geant_cost_network.node[9].core_layer 	interests[9] 	342451
scalar geant_cost_network.node[9].core_layer 	data[9] 	270109
scalar geant_cost_network.node[9].content_store 	p_hit[9] 	0.2108389229408
scalar geant_cost_network.node[9].content_store 	hits[9] 	72202
scalar geant_cost_network.node[9].content_store 	misses[9] 	270249
scalar geant_cost_network.node[9].content_store 	decision_yes[9] 	2820
scalar geant_cost_network.node[9].content_store 	decision_no[9] 	267289
scalar geant_cost_network.node[9].content_store 	decision_ratio[9] 	0.010440229685053
scalar geant_cost_network.node[10].core_layer 	interests[10] 	189162
scalar geant_cost_network.node[10].core_layer 	data[10] 	120246
scalar geant_cost_network.node[10].content_store 	p_hit[10] 	0.36405303390744
scalar geant_cost_network.node[10].content_store 	hits[10] 	68865
scalar geant_cost_network.node[10].content_store 	misses[10] 	120297
scalar geant_cost_network.node[10].content_store 	decision_yes[10] 	1190
scalar geant_cost_network.node[10].content_store 	decision_no[10] 	119056
scalar geant_cost_network.node[10].content_store 	decision_ratio[10] 	0.0098963790895331
scalar geant_cost_network.node[11].core_layer 	interests[11] 	0
scalar geant_cost_network.node[11].core_layer 	data[11] 	0
scalar geant_cost_network.node[11].content_store 	p_hit[11] 	-nan
scalar geant_cost_network.node[11].content_store 	hits[11] 	0
scalar geant_cost_network.node[11].content_store 	misses[11] 	0
scalar geant_cost_network.node[11].content_store 	decision_yes[11] 	0
scalar geant_cost_network.node[11].content_store 	decision_no[11] 	0
scalar geant_cost_network.node[11].content_store 	decision_ratio[11] 	0
scalar geant_cost_network.node[12].core_layer 	interests[12] 	285180
scalar geant_cost_network.node[12].core_layer 	data[12] 	215428
scalar geant_cost_network.node[12].content_store 	p_hit[12] 	0.24371975594361
scalar geant_cost_network.node[12].content_store 	hits[12] 	69504
scalar geant_cost_network.node[12].content_store 	misses[12] 	215676
scalar geant_cost_network.node[12].content_store 	decision_yes[12] 	2115
scalar geant_cost_network.node[12].content_store 	decision_no[12] 	213313
scalar geant_cost_network.node[12].content_store 	decision_ratio[12] 	0.0098176652988469
scalar geant_cost_network.node[13].core_layer 	interests[13] 	30327
scalar geant_cost_network.node[13].core_layer 	data[13] 	6161
scalar geant_cost_network.node[13].content_store 	p_hit[13] 	0.79681471955683
scalar geant_cost_network.node[13].content_store 	hits[13] 	24165
scalar geant_cost_network.node[13].content_store 	misses[13] 	6162
scalar geant_cost_network.node[13].content_store 	decision_yes[13] 	59
scalar geant_cost_network.node[13].content_store 	decision_no[13] 	6102
scalar geant_cost_network.node[13].content_store 	decision_ratio[13] 	0.0095763674728129
scalar geant_cost_network.node[14].core_layer 	interests[14] 	65529
scalar geant_cost_network.node[14].core_layer 	data[14] 	46021
scalar geant_cost_network.node[14].content_store 	p_hit[14] 	0.29741030688703
scalar geant_cost_network.node[14].content_store 	hits[14] 	19489
scalar geant_cost_network.node[14].content_store 	misses[14] 	46040
scalar geant_cost_network.node[14].content_store 	decision_yes[14] 	435
scalar geant_cost_network.node[14].content_store 	decision_no[14] 	45586
scalar geant_cost_network.node[14].content_store 	decision_ratio[14] 	0.0094522066013342
scalar geant_cost_network.node[15].core_layer 	interests[15] 	0
scalar geant_cost_network.node[15].core_layer 	data[15] 	0
scalar geant_cost_network.node[15].content_store 	p_hit[15] 	-nan
scalar geant_cost_network.node[15].content_store 	hits[15] 	0
scalar geant_cost_network.node[15].content_store 	misses[15] 	0
scalar geant_cost_network.node[15].content_store 	decision_yes[15] 	0
scalar geant_cost_network.node[15].content_store 	decision_no[15] 	0
scalar geant_cost_network.node[15].content_store 	decision_ratio[15] 	0
scalar geant_cost_network.node[16].core_layer 	interests[16] 	0
scalar geant_cost_network.node[16].core_layer 	data[16] 	0
scalar geant_cost_network.node[16].content_store 	p_hit[16] 	-nan
scalar geant_cost_network.node[16].content_store 	hits[16] 	0
scalar geant_cost_network.node[16].content_store 	misses[16] 	0
scalar geant_cost_network.node[16].content_store 	decision_yes[16] 	0
scalar geant_cost_network.node[16].content_store 	decision_no[16] 	0
scalar geant_cost_network.node[16].content_store 	decision_ratio[16] 	0
scalar geant_cost_network.node[17].core_layer 	interests[17] 	0
scalar geant_cost_network.node[17].core_layer 	data[17] 	0
scalar geant_cost_network.node[17].content_store 	p_hit[17] 	-nan
scalar geant_cost_network.node[17].content_store 	hits[17] 	0
scalar geant_cost_network.node[17].content_store 	misses[17] 	0
scalar geant_cost_network.node[17].content_store 	decision_yes[17] 	0
scalar geant_cost_network.node[17].content_store 	decision_no[17] 	0
scalar geant_cost_network.node[17].content_store 	decision_ratio[17] 	0
scalar geant_cost_network.node[18].core_layer 	interests[18] 	94744
scalar geant_cost_network.node[18].core_layer 	data[18] 	81381
scalar geant_cost_network.node[18].content_store 	p_hit[18] 	0.14104323228912
scalar geant_cost_network.node[18].content_store 	hits[18] 	13363
scalar geant_cost_network.node[18].content_store 	misses[18] 	81381
scalar geant_cost_network.node[18].content_store 	decision_yes[18] 	824
scalar geant_cost_network.node[18].content_store 	decision_no[18] 	80557
scalar geant_cost_network.node[18].content_store 	decision_ratio[18] 	0.010125213501923
scalar geant_cost_network.node[19].core_layer 	interests[19] 	0
scalar geant_cost_network.node[19].core_layer 	data[19] 	0
scalar geant_cost_network.node[19].content_store 	p_hit[19] 	-nan
scalar geant_cost_network.node[19].content_store 	hits[19] 	0
scalar geant_cost_network.node[19].content_store 	misses[19] 	0
scalar geant_cost_network.node[19].content_store 	decision_yes[19] 	0
scalar geant_cost_network.node[19].content_store 	decision_no[19] 	0
scalar geant_cost_network.node[19].content_store 	decision_ratio[19] 	0
scalar geant_cost_network.node[20].core_layer 	interests[20] 	182372
scalar geant_cost_network.node[20].core_layer 	data[20] 	120835
scalar geant_cost_network.node[20].content_store 	p_hit[20] 	0.33725023578181
scalar geant_cost_network.node[20].content_store 	hits[20] 	61505
scalar geant_cost_network.node[20].content_store 	misses[20] 	120867
scalar geant_cost_network.node[20].content_store 	decision_yes[20] 	1141
scalar geant_cost_network.node[20].content_store 	decision_no[20] 	119694
scalar geant_cost_network.node[20].content_store 	decision_ratio[20] 	0.0094426283775396
scalar geant_cost_network.node[21].core_layer 	interests[21] 	159377
scalar geant_cost_network.node[21].core_layer 	data[21] 	152125
scalar geant_cost_network.node[21].content_store 	p_hit[21] 	0.045502174090364
scalar geant_cost_network.node[21].content_store 	hits[21] 	7252
scalar geant_cost_network.node[21].content_store 	misses[21] 	152125
scalar geant_cost_network.node[21].content_store 	decision_yes[21] 	1563
scalar geant_cost_network.node[21].content_store 	decision_no[21] 	150562
scalar geant_cost_network.node[21].content_store 	decision_ratio[21] 	0.010274445357436
scalar geant_cost_network.node[22].core_layer 	interests[22] 	145405
scalar geant_cost_network.node[22].core_layer 	repo_load[22] 	145405
scalar geant_cost_network.node[22].core_layer 	data[22] 	0
scalar geant_cost_network.node[22].content_store 	p_hit[22] 	0
scalar geant_cost_network.node[22].content_store 	hits[22] 	0
scalar geant_cost_network.node[22].content_store 	misses[22] 	145405
scalar geant_cost_network.node[22].content_store 	decision_yes[22] 	0
scalar geant_cost_network.node[22].content_store 	decision_no[22] 	145405
scalar geant_cost_network.node[22].content_store 	decision_ratio[22] 	0
scalar geant_cost_network.node[23].core_layer 	interests[23] 	147746
scalar geant_cost_network.node[23].core_layer 	repo_load[23] 	147746
scalar geant_cost_network.node[23].core_layer 	data[23] 	0
scalar geant_cost_network.node[23].content_store 	p_hit[23] 	0
scalar geant_cost_network.node[23].content_store 	hits[23] 	0
scalar geant_cost_network.node[23].content_store 	misses[23] 	147746
scalar geant_cost_network.node[23].content_store 	decision_yes[23] 	0
scalar geant_cost_network.node[23].content_store 	decision_no[23] 	147746
scalar geant_cost_network.node[23].content_store 	decision_ratio[23] 	0
scalar geant_cost_network.node[24].core_layer 	interests[24] 	152125
scalar geant_cost_network.node[24].core_layer 	repo_load[24] 	152125
scalar geant_cost_network.node[24].core_layer 	data[24] 	0
scalar geant_cost_network.node[24].content_store 	p_hit[24] 	0
scalar geant_cost_network.node[24].content_store 	hits[24] 	0
scalar geant_cost_network.node[24].content_store 	misses[24] 	152125
scalar geant_cost_network.node[24].content_store 	decision_yes[24] 	0
scalar geant_cost_network.node[24].content_store 	decision_no[24] 	152125
scalar geant_cost_network.node[24].content_store 	decision_ratio[24] 	0
scalar geant_cost_network.client[5] 	hdistance[5] 	2.4324597726705
scalar geant_cost_network.client[5] 	downloads[5] 	179915
scalar geant_cost_network.client[5] 	avg_time[5] 	0.007654845808
scalar geant_cost_network.client[5] 	interests_sent[5] 	179959
scalar geant_cost_network.client[9] 	hdistance[9] 	2.4887148064842
scalar geant_cost_network.client[9] 	downloads[9] 	180502
scalar geant_cost_network.client[9] 	avg_time[9] 	0.004904165323
scalar geant_cost_network.client[9] 	interests_sent[9] 	180547
scalar geant_cost_network.client[10] 	hdistance[10] 	3.1195891538393
scalar geant_cost_network.client[10] 	downloads[10] 	179824
scalar geant_cost_network.client[10] 	avg_time[10] 	0.006193105007
scalar geant_cost_network.client[10] 	interests_sent[10] 	179875
scalar geant_cost_network.client[12] 	hdistance[12] 	2.6104835166057
scalar geant_cost_network.client[12] 	downloads[12] 	179787
scalar geant_cost_network.client[12] 	avg_time[12] 	0.005845795169
scalar geant_cost_network.client[12] 	interests_sent[12] 	179868
scalar geant_cost_network.client[20] 	hdistance[20] 	2.6835958853055
scalar geant_cost_network.client[20] 	downloads[20] 	181107
scalar geant_cost_network.client[20] 	avg_time[20] 	0.005325429434
scalar geant_cost_network.client[20] 	interests_sent[20] 	181139
