version 2
run General-2-20140626-15:43:00-16172
attr D fix0.01
attr F nrr
attr R lru
attr a 1
attr configname General
attr csize 1e3
attr ctlg 1e5
attr datetime 20140626-15:43:00
attr experiment General
attr inifile omnetpp.ini
attr iterationvars "$net=geant_cost, $rep=7, $priceratiovalue=10, $weights=0.333_0.333_0.334, $lambda=100, $a=1, $ctlg=1e5, $F=nrr, $ttl=1000, $D=fix0.01, $xi=1, $R=lru, $csize=1e3, $pricebits=0, $mytime=1800"
attr iterationvars2 "$net=geant_cost, $rep=7, $priceratiovalue=10, $weights=0.333_0.333_0.334, $lambda=100, $a=1, $ctlg=1e5, $F=nrr, $ttl=1000, $D=fix0.01, $xi=1, $R=lru, $csize=1e3, $pricebits=0, $mytime=1800, $repetition=0"
attr lambda 100
attr measurement "$net=geant_cost, $rep=7, $priceratiovalue=10, $weights=0.333_0.333_0.334, $lambda=100, $a=1, $ctlg=1e5, $F=nrr, $ttl=1000, $D=fix0.01, $xi=1, $R=lru, $csize=1e3, $pricebits=0, $mytime=1800"
attr mytime 1800
attr net geant_cost
attr network "networks.${net=geant_cost, abilene_cost}_network"
attr pricebits 0
attr priceratiovalue 10
attr processid 16172
attr rep 7
attr repetition 0
attr replication #0
attr resultdir results
attr runnumber 2
attr seedset 7
attr ttl 1000
attr weights 0.333_0.333_0.334
attr xi 1

scalar . 	a 	1
scalar . 	csize 	1e3
scalar . 	ctlg 	1e5
scalar . 	lambda 	100
scalar . 	mytime 	1800
scalar . 	pricebits 	0
scalar . 	priceratiovalue 	10
scalar . 	rep 	7
scalar . 	ttl 	1000
scalar . 	xi 	1
scalar geant_cost_network.content_distribution 	repo-0 	22
scalar geant_cost_network.content_distribution 	repo-1 	23
scalar geant_cost_network.content_distribution 	repo-2 	24
scalar geant_cost_network.content_distribution 	client-0 	20
scalar geant_cost_network.content_distribution 	client-1 	10
scalar geant_cost_network.content_distribution 	client-2 	12
scalar geant_cost_network.content_distribution 	client-3 	9
scalar geant_cost_network.content_distribution 	client-4 	5
scalar geant_cost_network.content_distribution 	repo-0_card 	33104
scalar geant_cost_network.content_distribution 	repo-1_card 	33508
scalar geant_cost_network.content_distribution 	repo-2_card 	33388
scalar geant_cost_network.statistics 	repo_popularity[0] 	0.34609068621501
scalar geant_cost_network.statistics 	repo_popularity[1] 	0.29388785961082
scalar geant_cost_network.statistics 	repo_popularity[2] 	0.36002145417417
scalar geant_cost_network.statistics 	stabilization_time 	36120
scalar geant_cost_network.node[7].face$o[4].channel 	price[7] 	0
scalar geant_cost_network.node[7].face$o[4].channel 	represented_price[7] 	0
scalar geant_cost_network.node[8].face$o[3].channel 	price[8] 	0
scalar geant_cost_network.node[8].face$o[3].channel 	represented_price[8] 	0
scalar geant_cost_network.node[21].face$o[5].channel 	price[21] 	0
scalar geant_cost_network.node[21].face$o[5].channel 	represented_price[21] 	0
scalar geant_cost_network.node[22].face$o[1].channel 	price[22] 	0
scalar geant_cost_network.node[22].face$o[1].channel 	represented_price[22] 	0
scalar geant_cost_network.node[23].face$o[1].channel 	price[23] 	1
scalar geant_cost_network.node[23].face$o[1].channel 	represented_price[23] 	1
scalar geant_cost_network.node[24].face$o[1].channel 	price[24] 	10
scalar geant_cost_network.node[24].face$o[1].channel 	represented_price[24] 	10
scalar geant_cost_network.statistics 	p_hit 	0.15903541106239
scalar geant_cost_network.statistics 	interests 	114451.24
scalar geant_cost_network.statistics 	data 	78426.88
scalar geant_cost_network.statistics 	hdistance 	2.6726727772168
scalar geant_cost_network.statistics 	avg_time 	0.005978707765
scalar geant_cost_network.statistics 	downloads 	900328
scalar geant_cost_network.statistics 	total_cost 	1633964
scalar geant_cost_network.statistics 	total_replicas 	100000
scalar geant_cost_network.statistics 	inner_hit 	0.50577456215957
scalar geant_cost_network.statistics 	interests_sent 	900614
scalar geant_cost_network.node[0].core_layer 	interests[0] 	0
scalar geant_cost_network.node[0].core_layer 	data[0] 	0
scalar geant_cost_network.node[0].core_layer 	repo_int[0] 	444965
scalar geant_cost_network.node[0].content_store 	p_hit[0] 	-nan
scalar geant_cost_network.node[0].content_store 	hits[0] 	0
scalar geant_cost_network.node[0].content_store 	misses[0] 	0
scalar geant_cost_network.node[0].content_store 	decision_yes[0] 	0
scalar geant_cost_network.node[0].content_store 	decision_no[0] 	0
scalar geant_cost_network.node[0].content_store 	decision_ratio[0] 	0
scalar geant_cost_network.node[1].core_layer 	interests[1] 	0
scalar geant_cost_network.node[1].core_layer 	data[1] 	0
scalar geant_cost_network.node[1].content_store 	p_hit[1] 	-nan
scalar geant_cost_network.node[1].content_store 	hits[1] 	0
scalar geant_cost_network.node[1].content_store 	misses[1] 	0
scalar geant_cost_network.node[1].content_store 	decision_yes[1] 	0
scalar geant_cost_network.node[1].content_store 	decision_no[1] 	0
scalar geant_cost_network.node[1].content_store 	decision_ratio[1] 	0
scalar geant_cost_network.node[2].core_layer 	interests[2] 	0
scalar geant_cost_network.node[2].core_layer 	data[2] 	0
scalar geant_cost_network.node[2].content_store 	p_hit[2] 	-nan
scalar geant_cost_network.node[2].content_store 	hits[2] 	0
scalar geant_cost_network.node[2].content_store 	misses[2] 	0
scalar geant_cost_network.node[2].content_store 	decision_yes[2] 	0
scalar geant_cost_network.node[2].content_store 	decision_no[2] 	0
scalar geant_cost_network.node[2].content_store 	decision_ratio[2] 	0
scalar geant_cost_network.node[3].core_layer 	interests[3] 	164931
scalar geant_cost_network.node[3].core_layer 	data[3] 	141704
scalar geant_cost_network.node[3].content_store 	p_hit[3] 	0.14083465206662
scalar geant_cost_network.node[3].content_store 	hits[3] 	23228
scalar geant_cost_network.node[3].content_store 	misses[3] 	141703
scalar geant_cost_network.node[3].content_store 	decision_yes[3] 	1425
scalar geant_cost_network.node[3].content_store 	decision_no[3] 	140279
scalar geant_cost_network.node[3].content_store 	decision_ratio[3] 	0.010056173431943
scalar geant_cost_network.node[4].core_layer 	interests[4] 	200930
scalar geant_cost_network.node[4].core_layer 	data[4] 	192163
scalar geant_cost_network.node[4].content_store 	p_hit[4] 	0.043642064400538
scalar geant_cost_network.node[4].content_store 	hits[4] 	8769
scalar geant_cost_network.node[4].content_store 	misses[4] 	192161
scalar geant_cost_network.node[4].content_store 	decision_yes[4] 	1973
scalar geant_cost_network.node[4].content_store 	decision_no[4] 	190190
scalar geant_cost_network.node[4].content_store 	decision_ratio[4] 	0.010267325135432
scalar geant_cost_network.node[5].core_layer 	interests[5] 	188169
scalar geant_cost_network.node[5].core_layer 	data[5] 	124340
scalar geant_cost_network.node[5].content_store 	p_hit[5] 	0.33893468105799
scalar geant_cost_network.node[5].content_store 	hits[5] 	63777
scalar geant_cost_network.node[5].content_store 	misses[5] 	124392
scalar geant_cost_network.node[5].content_store 	decision_yes[5] 	1165
scalar geant_cost_network.node[5].content_store 	decision_no[5] 	123175
scalar geant_cost_network.node[5].content_store 	decision_ratio[5] 	0.0093694708058549
scalar geant_cost_network.node[6].core_layer 	interests[6] 	69964
scalar geant_cost_network.node[6].core_layer 	data[6] 	61493
scalar geant_cost_network.node[6].content_store 	p_hit[6] 	0.12109084672117
scalar geant_cost_network.node[6].content_store 	hits[6] 	8472
scalar geant_cost_network.node[6].content_store 	misses[6] 	61492
scalar geant_cost_network.node[6].content_store 	decision_yes[6] 	602
scalar geant_cost_network.node[6].content_store 	decision_no[6] 	60891
scalar geant_cost_network.node[6].content_store 	decision_ratio[6] 	0.0097897321646366
scalar geant_cost_network.node[7].core_layer 	interests[7] 	219346
scalar geant_cost_network.node[7].core_layer 	data[7] 	212101
scalar geant_cost_network.node[7].content_store 	p_hit[7] 	0.033030007385592
scalar geant_cost_network.node[7].content_store 	hits[7] 	7245
scalar geant_cost_network.node[7].content_store 	misses[7] 	212101
scalar geant_cost_network.node[7].content_store 	decision_yes[7] 	2134
scalar geant_cost_network.node[7].content_store 	decision_no[7] 	209967
scalar geant_cost_network.node[7].content_store 	decision_ratio[7] 	0.010061244407146
scalar geant_cost_network.node[8].core_layer 	interests[8] 	224564
scalar geant_cost_network.node[8].core_layer 	data[8] 	215747
scalar geant_cost_network.node[8].content_store 	p_hit[8] 	0.039262749149463
scalar geant_cost_network.node[8].content_store 	hits[8] 	8817
scalar geant_cost_network.node[8].content_store 	misses[8] 	215747
scalar geant_cost_network.node[8].content_store 	decision_yes[8] 	2189
scalar geant_cost_network.node[8].content_store 	decision_no[8] 	213558
scalar geant_cost_network.node[8].content_store 	decision_ratio[8] 	0.010146143399445
scalar geant_cost_network.node[9].core_layer 	interests[9] 	344591
scalar geant_cost_network.node[9].core_layer 	data[9] 	273488
scalar geant_cost_network.node[9].content_store 	p_hit[9] 	0.20578018578547
scalar geant_cost_network.node[9].content_store 	hits[9] 	70910
scalar geant_cost_network.node[9].content_store 	misses[9] 	273681
scalar geant_cost_network.node[9].content_store 	decision_yes[9] 	2736
scalar geant_cost_network.node[9].content_store 	decision_no[9] 	270752
scalar geant_cost_network.node[9].content_store 	decision_ratio[9] 	0.010004095243667
scalar geant_cost_network.node[10].core_layer 	interests[10] 	189371
scalar geant_cost_network.node[10].core_layer 	data[10] 	120909
scalar geant_cost_network.node[10].content_store 	p_hit[10] 	0.36128551890205
scalar geant_cost_network.node[10].content_store 	hits[10] 	68417
scalar geant_cost_network.node[10].content_store 	misses[10] 	120954
scalar geant_cost_network.node[10].content_store 	decision_yes[10] 	1199
scalar geant_cost_network.node[10].content_store 	decision_no[10] 	119710
scalar geant_cost_network.node[10].content_store 	decision_ratio[10] 	0.0099165488094352
scalar geant_cost_network.node[11].core_layer 	interests[11] 	0
scalar geant_cost_network.node[11].core_layer 	data[11] 	0
scalar geant_cost_network.node[11].content_store 	p_hit[11] 	-nan
scalar geant_cost_network.node[11].content_store 	hits[11] 	0
scalar geant_cost_network.node[11].content_store 	misses[11] 	0
scalar geant_cost_network.node[11].content_store 	decision_yes[11] 	0
scalar geant_cost_network.node[11].content_store 	decision_no[11] 	0
scalar geant_cost_network.node[11].content_store 	decision_ratio[11] 	0
scalar geant_cost_network.node[12].core_layer 	interests[12] 	285954
scalar geant_cost_network.node[12].core_layer 	data[12] 	215578
scalar geant_cost_network.node[12].content_store 	p_hit[12] 	0.24518279163782
scalar geant_cost_network.node[12].content_store 	hits[12] 	70111
scalar geant_cost_network.node[12].content_store 	misses[12] 	215843
scalar geant_cost_network.node[12].content_store 	decision_yes[12] 	2171
scalar geant_cost_network.node[12].content_store 	decision_no[12] 	213407
scalar geant_cost_network.node[12].content_store 	decision_ratio[12] 	0.010070600896195
scalar geant_cost_network.node[13].core_layer 	interests[13] 	29731
scalar geant_cost_network.node[13].core_layer 	data[13] 	6344
scalar geant_cost_network.node[13].content_store 	p_hit[13] 	0.78658639130873
scalar geant_cost_network.node[13].content_store 	hits[13] 	23386
scalar geant_cost_network.node[13].content_store 	misses[13] 	6345
scalar geant_cost_network.node[13].content_store 	decision_yes[13] 	75
scalar geant_cost_network.node[13].content_store 	decision_no[13] 	6269
scalar geant_cost_network.node[13].content_store 	decision_ratio[13] 	0.011822194199243
scalar geant_cost_network.node[14].core_layer 	interests[14] 	66014
scalar geant_cost_network.node[14].core_layer 	data[14] 	45013
scalar geant_cost_network.node[14].content_store 	p_hit[14] 	0.3178416699488
scalar geant_cost_network.node[14].content_store 	hits[14] 	20982
scalar geant_cost_network.node[14].content_store 	misses[14] 	45032
scalar geant_cost_network.node[14].content_store 	decision_yes[14] 	452
scalar geant_cost_network.node[14].content_store 	decision_no[14] 	44561
scalar geant_cost_network.node[14].content_store 	decision_ratio[14] 	0.010041543554084
scalar geant_cost_network.node[15].core_layer 	interests[15] 	0
scalar geant_cost_network.node[15].core_layer 	data[15] 	0
scalar geant_cost_network.node[15].content_store 	p_hit[15] 	-nan
scalar geant_cost_network.node[15].content_store 	hits[15] 	0
scalar geant_cost_network.node[15].content_store 	misses[15] 	0
scalar geant_cost_network.node[15].content_store 	decision_yes[15] 	0
scalar geant_cost_network.node[15].content_store 	decision_no[15] 	0
scalar geant_cost_network.node[15].content_store 	decision_ratio[15] 	0
scalar geant_cost_network.node[16].core_layer 	interests[16] 	0
scalar geant_cost_network.node[16].core_layer 	data[16] 	0
scalar geant_cost_network.node[16].content_store 	p_hit[16] 	-nan
scalar geant_cost_network.node[16].content_store 	hits[16] 	0
scalar geant_cost_network.node[16].content_store 	misses[16] 	0
scalar geant_cost_network.node[16].content_store 	decision_yes[16] 	0
scalar geant_cost_network.node[16].content_store 	decision_no[16] 	0
scalar geant_cost_network.node[16].content_store 	decision_ratio[16] 	0
scalar geant_cost_network.node[17].core_layer 	interests[17] 	0
scalar geant_cost_network.node[17].core_layer 	data[17] 	0
scalar geant_cost_network.node[17].content_store 	p_hit[17] 	-nan
scalar geant_cost_network.node[17].content_store 	hits[17] 	0
scalar geant_cost_network.node[17].content_store 	misses[17] 	0
scalar geant_cost_network.node[17].content_store 	decision_yes[17] 	0
scalar geant_cost_network.node[17].content_store 	decision_no[17] 	0
scalar geant_cost_network.node[17].content_store 	decision_ratio[17] 	0
scalar geant_cost_network.node[18].core_layer 	interests[18] 	95532
scalar geant_cost_network.node[18].core_layer 	data[18] 	82603
scalar geant_cost_network.node[18].content_store 	p_hit[18] 	0.13533685047942
scalar geant_cost_network.node[18].content_store 	hits[18] 	12929
scalar geant_cost_network.node[18].content_store 	misses[18] 	82603
scalar geant_cost_network.node[18].content_store 	decision_yes[18] 	782
scalar geant_cost_network.node[18].content_store 	decision_no[18] 	81821
scalar geant_cost_network.node[18].content_store 	decision_ratio[18] 	0.0094669685120395
scalar geant_cost_network.node[19].core_layer 	interests[19] 	0
scalar geant_cost_network.node[19].core_layer 	data[19] 	0
scalar geant_cost_network.node[19].content_store 	p_hit[19] 	-nan
scalar geant_cost_network.node[19].content_store 	hits[19] 	0
scalar geant_cost_network.node[19].content_store 	misses[19] 	0
scalar geant_cost_network.node[19].content_store 	decision_yes[19] 	0
scalar geant_cost_network.node[19].content_store 	decision_no[19] 	0
scalar geant_cost_network.node[19].content_store 	decision_ratio[19] 	0
scalar geant_cost_network.node[20].core_layer 	interests[20] 	181310
scalar geant_cost_network.node[20].core_layer 	data[20] 	120819
scalar geant_cost_network.node[20].content_store 	p_hit[20] 	0.33347857261045
scalar geant_cost_network.node[20].content_store 	hits[20] 	60463
scalar geant_cost_network.node[20].content_store 	misses[20] 	120847
scalar geant_cost_network.node[20].content_store 	decision_yes[20] 	1205
scalar geant_cost_network.node[20].content_store 	decision_no[20] 	119614
scalar geant_cost_network.node[20].content_store 	decision_ratio[20] 	0.0099735968680423
scalar geant_cost_network.node[21].core_layer 	interests[21] 	155909
scalar geant_cost_network.node[21].core_layer 	data[21] 	148370
scalar geant_cost_network.node[21].content_store 	p_hit[21] 	0.048355130236228
scalar geant_cost_network.node[21].content_store 	hits[21] 	7539
scalar geant_cost_network.node[21].content_store 	misses[21] 	148370
scalar geant_cost_network.node[21].content_store 	decision_yes[21] 	1474
scalar geant_cost_network.node[21].content_store 	decision_no[21] 	146896
scalar geant_cost_network.node[21].content_store 	decision_ratio[21] 	0.0099346229022039
scalar geant_cost_network.node[22].core_layer 	interests[22] 	146331
scalar geant_cost_network.node[22].core_layer 	repo_load[22] 	146331
scalar geant_cost_network.node[22].core_layer 	data[22] 	0
scalar geant_cost_network.node[22].content_store 	p_hit[22] 	0
scalar geant_cost_network.node[22].content_store 	hits[22] 	0
scalar geant_cost_network.node[22].content_store 	misses[22] 	146331
scalar geant_cost_network.node[22].content_store 	decision_yes[22] 	0
scalar geant_cost_network.node[22].content_store 	decision_no[22] 	146331
scalar geant_cost_network.node[22].content_store 	decision_ratio[22] 	0
scalar geant_cost_network.node[23].core_layer 	interests[23] 	150264
scalar geant_cost_network.node[23].core_layer 	repo_load[23] 	150264
scalar geant_cost_network.node[23].core_layer 	data[23] 	0
scalar geant_cost_network.node[23].content_store 	p_hit[23] 	0
scalar geant_cost_network.node[23].content_store 	hits[23] 	0
scalar geant_cost_network.node[23].content_store 	misses[23] 	150264
scalar geant_cost_network.node[23].content_store 	decision_yes[23] 	0
scalar geant_cost_network.node[23].content_store 	decision_no[23] 	150264
scalar geant_cost_network.node[23].content_store 	decision_ratio[23] 	0
scalar geant_cost_network.node[24].core_layer 	interests[24] 	148370
scalar geant_cost_network.node[24].core_layer 	repo_load[24] 	148370
scalar geant_cost_network.node[24].core_layer 	data[24] 	0
scalar geant_cost_network.node[24].content_store 	p_hit[24] 	0
scalar geant_cost_network.node[24].content_store 	hits[24] 	0
scalar geant_cost_network.node[24].content_store 	misses[24] 	148370
scalar geant_cost_network.node[24].content_store 	decision_yes[24] 	0
scalar geant_cost_network.node[24].content_store 	decision_no[24] 	148370
scalar geant_cost_network.node[24].content_store 	decision_ratio[24] 	0
scalar geant_cost_network.client[5] 	hdistance[5] 	2.4238120971381
scalar geant_cost_network.client[5] 	downloads[5] 	179497
scalar geant_cost_network.client[5] 	avg_time[5] 	0.007551922276
scalar geant_cost_network.client[5] 	interests_sent[5] 	179547
scalar geant_cost_network.client[9] 	hdistance[9] 	2.4974226090616
scalar geant_cost_network.client[9] 	downloads[9] 	180609
scalar geant_cost_network.client[9] 	avg_time[9] 	0.004931807852
scalar geant_cost_network.client[9] 	interests_sent[9] 	180688
scalar geant_cost_network.client[10] 	hdistance[10] 	3.1283631695076
scalar geant_cost_network.client[10] 	downloads[10] 	179927
scalar geant_cost_network.client[10] 	avg_time[10] 	0.006236136328
scalar geant_cost_network.client[10] 	interests_sent[10] 	179972
scalar geant_cost_network.client[12] 	hdistance[12] 	2.6125394527372
scalar geant_cost_network.client[12] 	downloads[12] 	180279
scalar geant_cost_network.client[12] 	avg_time[12] 	0.005792954651
scalar geant_cost_network.client[12] 	interests_sent[12] 	180363
scalar geant_cost_network.client[20] 	hdistance[20] 	2.7012265576394
scalar geant_cost_network.client[20] 	downloads[20] 	180016
scalar geant_cost_network.client[20] 	avg_time[20] 	0.005380717721
scalar geant_cost_network.client[20] 	interests_sent[20] 	180044
