version 2
run General-10-20140626-16:17:54-16549
attr D fix0.01
attr F nrr
attr R lru
attr a 1
attr configname General
attr csize 1e3
attr ctlg 1e5
attr datetime 20140626-16:17:54
attr experiment General
attr inifile omnetpp.ini
attr iterationvars "$net=geant_cost, $rep=2, $priceratiovalue=10, $weights=0.333_0.333_0.334, $lambda=100, $a=1, $ctlg=1e5, $F=nrr, $ttl=1000, $D=fix0.01, $xi=1, $R=lru, $csize=1e3, $pricebits=0, $mytime=1800"
attr iterationvars2 "$net=geant_cost, $rep=2, $priceratiovalue=10, $weights=0.333_0.333_0.334, $lambda=100, $a=1, $ctlg=1e5, $F=nrr, $ttl=1000, $D=fix0.01, $xi=1, $R=lru, $csize=1e3, $pricebits=0, $mytime=1800, $repetition=0"
attr lambda 100
attr measurement "$net=geant_cost, $rep=2, $priceratiovalue=10, $weights=0.333_0.333_0.334, $lambda=100, $a=1, $ctlg=1e5, $F=nrr, $ttl=1000, $D=fix0.01, $xi=1, $R=lru, $csize=1e3, $pricebits=0, $mytime=1800"
attr mytime 1800
attr net geant_cost
attr network "networks.${net=geant_cost, abilene_cost}_network"
attr pricebits 0
attr priceratiovalue 10
attr processid 16549
attr rep 2
attr repetition 0
attr replication #0
attr resultdir results
attr runnumber 10
attr seedset 2
attr ttl 1000
attr weights 0.333_0.333_0.334
attr xi 1

scalar . 	a 	1
scalar . 	csize 	1e3
scalar . 	ctlg 	1e5
scalar . 	lambda 	100
scalar . 	mytime 	1800
scalar . 	pricebits 	0
scalar . 	priceratiovalue 	10
scalar . 	rep 	2
scalar . 	ttl 	1000
scalar . 	xi 	1
scalar geant_cost_network.content_distribution 	repo-0 	22
scalar geant_cost_network.content_distribution 	repo-1 	23
scalar geant_cost_network.content_distribution 	repo-2 	24
scalar geant_cost_network.content_distribution 	client-0 	20
scalar geant_cost_network.content_distribution 	client-1 	10
scalar geant_cost_network.content_distribution 	client-2 	12
scalar geant_cost_network.content_distribution 	client-3 	9
scalar geant_cost_network.content_distribution 	client-4 	5
scalar geant_cost_network.content_distribution 	repo-0_card 	33329
scalar geant_cost_network.content_distribution 	repo-1_card 	33051
scalar geant_cost_network.content_distribution 	repo-2_card 	33620
scalar geant_cost_network.statistics 	repo_popularity[0] 	0.40477944494875
scalar geant_cost_network.statistics 	repo_popularity[1] 	0.29142457969466
scalar geant_cost_network.statistics 	repo_popularity[2] 	0.30379597535658
scalar geant_cost_network.statistics 	stabilization_time 	36060
scalar geant_cost_network.node[7].face$o[4].channel 	price[7] 	0
scalar geant_cost_network.node[7].face$o[4].channel 	represented_price[7] 	0
scalar geant_cost_network.node[8].face$o[3].channel 	price[8] 	0
scalar geant_cost_network.node[8].face$o[3].channel 	represented_price[8] 	0
scalar geant_cost_network.node[21].face$o[5].channel 	price[21] 	0
scalar geant_cost_network.node[21].face$o[5].channel 	represented_price[21] 	0
scalar geant_cost_network.node[22].face$o[1].channel 	price[22] 	0
scalar geant_cost_network.node[22].face$o[1].channel 	represented_price[22] 	0
scalar geant_cost_network.node[23].face$o[1].channel 	price[23] 	1
scalar geant_cost_network.node[23].face$o[1].channel 	represented_price[23] 	1
scalar geant_cost_network.node[24].face$o[1].channel 	price[24] 	10
scalar geant_cost_network.node[24].face$o[1].channel 	represented_price[24] 	10
scalar geant_cost_network.statistics 	p_hit 	0.15917108464821
scalar geant_cost_network.statistics 	interests 	114101.88
scalar geant_cost_network.statistics 	data 	78146.8
scalar geant_cost_network.statistics 	hdistance 	2.6693946132266
scalar geant_cost_network.statistics 	avg_time 	0.006030388221
scalar geant_cost_network.statistics 	downloads 	898556
scalar geant_cost_network.statistics 	total_cost 	1637758
scalar geant_cost_network.statistics 	total_replicas 	100000
scalar geant_cost_network.statistics 	inner_hit 	0.50562235408811
scalar geant_cost_network.statistics 	interests_sent 	898870
scalar geant_cost_network.node[0].core_layer 	interests[0] 	0
scalar geant_cost_network.node[0].core_layer 	data[0] 	0
scalar geant_cost_network.node[0].core_layer 	repo_int[0] 	444226
scalar geant_cost_network.node[0].content_store 	p_hit[0] 	-nan
scalar geant_cost_network.node[0].content_store 	hits[0] 	0
scalar geant_cost_network.node[0].content_store 	misses[0] 	0
scalar geant_cost_network.node[0].content_store 	decision_yes[0] 	0
scalar geant_cost_network.node[0].content_store 	decision_no[0] 	0
scalar geant_cost_network.node[0].content_store 	decision_ratio[0] 	0
scalar geant_cost_network.node[1].core_layer 	interests[1] 	0
scalar geant_cost_network.node[1].core_layer 	data[1] 	0
scalar geant_cost_network.node[1].content_store 	p_hit[1] 	-nan
scalar geant_cost_network.node[1].content_store 	hits[1] 	0
scalar geant_cost_network.node[1].content_store 	misses[1] 	0
scalar geant_cost_network.node[1].content_store 	decision_yes[1] 	0
scalar geant_cost_network.node[1].content_store 	decision_no[1] 	0
scalar geant_cost_network.node[1].content_store 	decision_ratio[1] 	0
scalar geant_cost_network.node[2].core_layer 	interests[2] 	0
scalar geant_cost_network.node[2].core_layer 	data[2] 	0
scalar geant_cost_network.node[2].content_store 	p_hit[2] 	-nan
scalar geant_cost_network.node[2].content_store 	hits[2] 	0
scalar geant_cost_network.node[2].content_store 	misses[2] 	0
scalar geant_cost_network.node[2].content_store 	decision_yes[2] 	0
scalar geant_cost_network.node[2].content_store 	decision_no[2] 	0
scalar geant_cost_network.node[2].content_store 	decision_ratio[2] 	0
scalar geant_cost_network.node[3].core_layer 	interests[3] 	163447
scalar geant_cost_network.node[3].core_layer 	data[3] 	142321
scalar geant_cost_network.node[3].content_store 	p_hit[3] 	0.12924067128794
scalar geant_cost_network.node[3].content_store 	hits[3] 	21124
scalar geant_cost_network.node[3].content_store 	misses[3] 	142323
scalar geant_cost_network.node[3].content_store 	decision_yes[3] 	1438
scalar geant_cost_network.node[3].content_store 	decision_no[3] 	140882
scalar geant_cost_network.node[3].content_store 	decision_ratio[3] 	0.010103991006183
scalar geant_cost_network.node[4].core_layer 	interests[4] 	201799
scalar geant_cost_network.node[4].core_layer 	data[4] 	191809
scalar geant_cost_network.node[4].content_store 	p_hit[4] 	0.049489838899103
scalar geant_cost_network.node[4].content_store 	hits[4] 	9987
scalar geant_cost_network.node[4].content_store 	misses[4] 	191812
scalar geant_cost_network.node[4].content_store 	decision_yes[4] 	2036
scalar geant_cost_network.node[4].content_store 	decision_no[4] 	189772
scalar geant_cost_network.node[4].content_store 	decision_ratio[4] 	0.010614781448115
scalar geant_cost_network.node[5].core_layer 	interests[5] 	188722
scalar geant_cost_network.node[5].core_layer 	data[5] 	124685
scalar geant_cost_network.node[5].content_store 	p_hit[5] 	0.33892709911934
scalar geant_cost_network.node[5].content_store 	hits[5] 	63963
scalar geant_cost_network.node[5].content_store 	misses[5] 	124759
scalar geant_cost_network.node[5].content_store 	decision_yes[5] 	1297
scalar geant_cost_network.node[5].content_store 	decision_no[5] 	123388
scalar geant_cost_network.node[5].content_store 	decision_ratio[5] 	0.010402213578217
scalar geant_cost_network.node[6].core_layer 	interests[6] 	70286
scalar geant_cost_network.node[6].core_layer 	data[6] 	61796
scalar geant_cost_network.node[6].content_store 	p_hit[6] 	0.12077796431722
scalar geant_cost_network.node[6].content_store 	hits[6] 	8489
scalar geant_cost_network.node[6].content_store 	misses[6] 	61797
scalar geant_cost_network.node[6].content_store 	decision_yes[6] 	644
scalar geant_cost_network.node[6].content_store 	decision_no[6] 	61152
scalar geant_cost_network.node[6].content_store 	decision_ratio[6] 	0.010421386497508
scalar geant_cost_network.node[7].core_layer 	interests[7] 	219937
scalar geant_cost_network.node[7].core_layer 	data[7] 	212969
scalar geant_cost_network.node[7].content_store 	p_hit[7] 	0.03167725303155
scalar geant_cost_network.node[7].content_store 	hits[7] 	6967
scalar geant_cost_network.node[7].content_store 	misses[7] 	212970
scalar geant_cost_network.node[7].content_store 	decision_yes[7] 	2076
scalar geant_cost_network.node[7].content_store 	decision_no[7] 	210893
scalar geant_cost_network.node[7].content_store 	decision_ratio[7] 	0.0097478975813381
scalar geant_cost_network.node[8].core_layer 	interests[8] 	222214
scalar geant_cost_network.node[8].core_layer 	data[8] 	212896
scalar geant_cost_network.node[8].content_store 	p_hit[8] 	0.041932551504406
scalar geant_cost_network.node[8].content_store 	hits[8] 	9318
scalar geant_cost_network.node[8].content_store 	misses[8] 	212896
scalar geant_cost_network.node[8].content_store 	decision_yes[8] 	2182
scalar geant_cost_network.node[8].content_store 	decision_no[8] 	210713
scalar geant_cost_network.node[8].content_store 	decision_ratio[8] 	0.010249183869983
scalar geant_cost_network.node[9].core_layer 	interests[9] 	343000
scalar geant_cost_network.node[9].core_layer 	data[9] 	270754
scalar geant_cost_network.node[9].content_store 	p_hit[9] 	0.2101749271137
scalar geant_cost_network.node[9].content_store 	hits[9] 	72090
scalar geant_cost_network.node[9].content_store 	misses[9] 	270910
scalar geant_cost_network.node[9].content_store 	decision_yes[9] 	2706
scalar geant_cost_network.node[9].content_store 	decision_no[9] 	268048
scalar geant_cost_network.node[9].content_store 	decision_ratio[9] 	0.0099943121800601
scalar geant_cost_network.node[10].core_layer 	interests[10] 	188684
scalar geant_cost_network.node[10].core_layer 	data[10] 	120075
scalar geant_cost_network.node[10].content_store 	p_hit[10] 	0.36327404549405
scalar geant_cost_network.node[10].content_store 	hits[10] 	68544
scalar geant_cost_network.node[10].content_store 	misses[10] 	120140
scalar geant_cost_network.node[10].content_store 	decision_yes[10] 	1202
scalar geant_cost_network.node[10].content_store 	decision_no[10] 	118873
scalar geant_cost_network.node[10].content_store 	decision_ratio[10] 	0.010010410160316
scalar geant_cost_network.node[11].core_layer 	interests[11] 	0
scalar geant_cost_network.node[11].core_layer 	data[11] 	0
scalar geant_cost_network.node[11].content_store 	p_hit[11] 	-nan
scalar geant_cost_network.node[11].content_store 	hits[11] 	0
scalar geant_cost_network.node[11].content_store 	misses[11] 	0
scalar geant_cost_network.node[11].content_store 	decision_yes[11] 	0
scalar geant_cost_network.node[11].content_store 	decision_no[11] 	0
scalar geant_cost_network.node[11].content_store 	decision_ratio[11] 	0
scalar geant_cost_network.node[12].core_layer 	interests[12] 	284344
scalar geant_cost_network.node[12].core_layer 	data[12] 	215362
scalar geant_cost_network.node[12].content_store 	p_hit[12] 	0.2417283290662
scalar geant_cost_network.node[12].content_store 	hits[12] 	68734
scalar geant_cost_network.node[12].content_store 	misses[12] 	215610
scalar geant_cost_network.node[12].content_store 	decision_yes[12] 	2206
scalar geant_cost_network.node[12].content_store 	decision_no[12] 	213156
scalar geant_cost_network.node[12].content_store 	decision_ratio[12] 	0.010243218395074
scalar geant_cost_network.node[13].core_layer 	interests[13] 	31045
scalar geant_cost_network.node[13].core_layer 	data[13] 	6245
scalar geant_cost_network.node[13].content_store 	p_hit[13] 	0.79884039297794
scalar geant_cost_network.node[13].content_store 	hits[13] 	24800
scalar geant_cost_network.node[13].content_store 	misses[13] 	6245
scalar geant_cost_network.node[13].content_store 	decision_yes[13] 	61
scalar geant_cost_network.node[13].content_store 	decision_no[13] 	6184
scalar geant_cost_network.node[13].content_store 	decision_ratio[13] 	0.0097678142514011
scalar geant_cost_network.node[14].core_layer 	interests[14] 	64714
scalar geant_cost_network.node[14].core_layer 	data[14] 	45129
scalar geant_cost_network.node[14].content_store 	p_hit[14] 	0.30237661093426
scalar geant_cost_network.node[14].content_store 	hits[14] 	19568
scalar geant_cost_network.node[14].content_store 	misses[14] 	45146
scalar geant_cost_network.node[14].content_store 	decision_yes[14] 	441
scalar geant_cost_network.node[14].content_store 	decision_no[14] 	44688
scalar geant_cost_network.node[14].content_store 	decision_ratio[14] 	0.009771986970684
scalar geant_cost_network.node[15].core_layer 	interests[15] 	1
scalar geant_cost_network.node[15].core_layer 	data[15] 	1
scalar geant_cost_network.node[15].content_store 	p_hit[15] 	0
scalar geant_cost_network.node[15].content_store 	hits[15] 	0
scalar geant_cost_network.node[15].content_store 	misses[15] 	1
scalar geant_cost_network.node[15].content_store 	decision_yes[15] 	0
scalar geant_cost_network.node[15].content_store 	decision_no[15] 	1
scalar geant_cost_network.node[15].content_store 	decision_ratio[15] 	0
scalar geant_cost_network.node[16].core_layer 	interests[16] 	0
scalar geant_cost_network.node[16].core_layer 	data[16] 	0
scalar geant_cost_network.node[16].content_store 	p_hit[16] 	-nan
scalar geant_cost_network.node[16].content_store 	hits[16] 	0
scalar geant_cost_network.node[16].content_store 	misses[16] 	0
scalar geant_cost_network.node[16].content_store 	decision_yes[16] 	0
scalar geant_cost_network.node[16].content_store 	decision_no[16] 	0
scalar geant_cost_network.node[16].content_store 	decision_ratio[16] 	0
scalar geant_cost_network.node[17].core_layer 	interests[17] 	0
scalar geant_cost_network.node[17].core_layer 	data[17] 	0
scalar geant_cost_network.node[17].content_store 	p_hit[17] 	-nan
scalar geant_cost_network.node[17].content_store 	hits[17] 	0
scalar geant_cost_network.node[17].content_store 	misses[17] 	0
scalar geant_cost_network.node[17].content_store 	decision_yes[17] 	0
scalar geant_cost_network.node[17].content_store 	decision_no[17] 	0
scalar geant_cost_network.node[17].content_store 	decision_ratio[17] 	0
scalar geant_cost_network.node[18].core_layer 	interests[18] 	93591
scalar geant_cost_network.node[18].core_layer 	data[18] 	80944
scalar geant_cost_network.node[18].content_store 	p_hit[18] 	0.13511982989817
scalar geant_cost_network.node[18].content_store 	hits[18] 	12646
scalar geant_cost_network.node[18].content_store 	misses[18] 	80945
scalar geant_cost_network.node[18].content_store 	decision_yes[18] 	808
scalar geant_cost_network.node[18].content_store 	decision_no[18] 	80136
scalar geant_cost_network.node[18].content_store 	decision_ratio[18] 	0.0099822099229097
scalar geant_cost_network.node[19].core_layer 	interests[19] 	0
scalar geant_cost_network.node[19].core_layer 	data[19] 	0
scalar geant_cost_network.node[19].content_store 	p_hit[19] 	-nan
scalar geant_cost_network.node[19].content_store 	hits[19] 	0
scalar geant_cost_network.node[19].content_store 	misses[19] 	0
scalar geant_cost_network.node[19].content_store 	decision_yes[19] 	0
scalar geant_cost_network.node[19].content_store 	decision_no[19] 	0
scalar geant_cost_network.node[19].content_store 	decision_ratio[19] 	0
scalar geant_cost_network.node[20].core_layer 	interests[20] 	180259
scalar geant_cost_network.node[20].core_layer 	data[20] 	119632
scalar geant_cost_network.node[20].content_store 	p_hit[20] 	0.33611081832252
scalar geant_cost_network.node[20].content_store 	hits[20] 	60587
scalar geant_cost_network.node[20].content_store 	misses[20] 	119672
scalar geant_cost_network.node[20].content_store 	decision_yes[20] 	1150
scalar geant_cost_network.node[20].content_store 	decision_no[20] 	118482
scalar geant_cost_network.node[20].content_store 	decision_ratio[20] 	0.0096128126253845
scalar geant_cost_network.node[21].core_layer 	interests[21] 	156278
scalar geant_cost_network.node[21].core_layer 	data[21] 	149052
scalar geant_cost_network.node[21].content_store 	p_hit[21] 	0.046238114129948
scalar geant_cost_network.node[21].content_store 	hits[21] 	7226
scalar geant_cost_network.node[21].content_store 	misses[21] 	149052
scalar geant_cost_network.node[21].content_store 	decision_yes[21] 	1535
scalar geant_cost_network.node[21].content_store 	decision_no[21] 	147517
scalar geant_cost_network.node[21].content_store 	decision_ratio[21] 	0.010298419343585
scalar geant_cost_network.node[22].core_layer 	interests[22] 	147936
scalar geant_cost_network.node[22].core_layer 	repo_load[22] 	147936
scalar geant_cost_network.node[22].core_layer 	data[22] 	0
scalar geant_cost_network.node[22].content_store 	p_hit[22] 	0
scalar geant_cost_network.node[22].content_store 	hits[22] 	0
scalar geant_cost_network.node[22].content_store 	misses[22] 	147936
scalar geant_cost_network.node[22].content_store 	decision_yes[22] 	0
scalar geant_cost_network.node[22].content_store 	decision_no[22] 	147936
scalar geant_cost_network.node[22].content_store 	decision_ratio[22] 	0
scalar geant_cost_network.node[23].core_layer 	interests[23] 	147238
scalar geant_cost_network.node[23].core_layer 	repo_load[23] 	147238
scalar geant_cost_network.node[23].core_layer 	data[23] 	0
scalar geant_cost_network.node[23].content_store 	p_hit[23] 	0
scalar geant_cost_network.node[23].content_store 	hits[23] 	0
scalar geant_cost_network.node[23].content_store 	misses[23] 	147238
scalar geant_cost_network.node[23].content_store 	decision_yes[23] 	0
scalar geant_cost_network.node[23].content_store 	decision_no[23] 	147238
scalar geant_cost_network.node[23].content_store 	decision_ratio[23] 	0
scalar geant_cost_network.node[24].core_layer 	interests[24] 	149052
scalar geant_cost_network.node[24].core_layer 	repo_load[24] 	149052
scalar geant_cost_network.node[24].core_layer 	data[24] 	0
scalar geant_cost_network.node[24].content_store 	p_hit[24] 	0
scalar geant_cost_network.node[24].content_store 	hits[24] 	0
scalar geant_cost_network.node[24].content_store 	misses[24] 	149052
scalar geant_cost_network.node[24].content_store 	decision_yes[24] 	0
scalar geant_cost_network.node[24].content_store 	decision_no[24] 	149052
scalar geant_cost_network.node[24].content_store 	decision_ratio[24] 	0
scalar geant_cost_network.client[5] 	hdistance[5] 	2.4246531282233
scalar geant_cost_network.client[5] 	downloads[5] 	180326
scalar geant_cost_network.client[5] 	avg_time[5] 	0.007599145214
scalar geant_cost_network.client[5] 	interests_sent[5] 	180398
scalar geant_cost_network.client[9] 	hdistance[9] 	2.4966859085833
scalar geant_cost_network.client[9] 	downloads[9] 	179989
scalar geant_cost_network.client[9] 	avg_time[9] 	0.004984257487
scalar geant_cost_network.client[9] 	interests_sent[9] 	180048
scalar geant_cost_network.client[10] 	hdistance[10] 	3.1223894716341
scalar geant_cost_network.client[10] 	downloads[10] 	179705
scalar geant_cost_network.client[10] 	avg_time[10] 	0.006223737606
scalar geant_cost_network.client[10] 	interests_sent[10] 	179770
scalar geant_cost_network.client[12] 	hdistance[12] 	2.6112688944811
scalar geant_cost_network.client[12] 	downloads[12] 	179219
scalar geant_cost_network.client[12] 	avg_time[12] 	0.005977216065
scalar geant_cost_network.client[12] 	interests_sent[12] 	179297
scalar geant_cost_network.client[20] 	hdistance[20] 	2.6919756632109
scalar geant_cost_network.client[20] 	downloads[20] 	179317
scalar geant_cost_network.client[20] 	avg_time[20] 	0.005367584736
scalar geant_cost_network.client[20] 	interests_sent[20] 	179357
