version 2
run General-10-20140627-17:53:48-11355
attr D fix0.01
attr F nrr
attr R lru
attr a 1
attr configname General
attr csize 1e3
attr ctlg 1e5
attr datetime 20140627-17:53:48
attr experiment General
attr inifile omnetpp.ini
attr iterationvars "$net=geant_cost, $rep=12, $priceratiovalue=10, $weights=0.333_0.333_0.334, $lambda=100, $a=1, $ctlg=1e5, $F=nrr, $ttl=1000, $D=fix0.01, $xi=1, $R=lru, $csize=1e3, $pricebits=0, $window=60, $variance=0.05, $mytime=1800"
attr iterationvars2 "$net=geant_cost, $rep=12, $priceratiovalue=10, $weights=0.333_0.333_0.334, $lambda=100, $a=1, $ctlg=1e5, $F=nrr, $ttl=1000, $D=fix0.01, $xi=1, $R=lru, $csize=1e3, $pricebits=0, $window=60, $variance=0.05, $mytime=1800, $repetition=0"
attr lambda 100
attr measurement "$net=geant_cost, $rep=12, $priceratiovalue=10, $weights=0.333_0.333_0.334, $lambda=100, $a=1, $ctlg=1e5, $F=nrr, $ttl=1000, $D=fix0.01, $xi=1, $R=lru, $csize=1e3, $pricebits=0, $window=60, $variance=0.05, $mytime=1800"
attr mytime 1800
attr net geant_cost
attr network "networks.${net=geant_cost, abilene_cost}_network"
attr pricebits 0
attr priceratiovalue 10
attr processid 11355
attr rep 12
attr repetition 0
attr replication #0
attr resultdir results
attr runnumber 10
attr seedset 12
attr ttl 1000
attr variance 0.05
attr weights 0.333_0.333_0.334
attr window 60
attr xi 1

scalar . 	a 	1
scalar . 	csize 	1e3
scalar . 	ctlg 	1e5
scalar . 	lambda 	100
scalar . 	mytime 	1800
scalar . 	pricebits 	0
scalar . 	priceratiovalue 	10
scalar . 	rep 	12
scalar . 	ttl 	1000
scalar . 	variance 	0.05
scalar . 	window 	60
scalar . 	xi 	1
scalar geant_cost_network.content_distribution 	repo-0 	22
scalar geant_cost_network.content_distribution 	repo-1 	23
scalar geant_cost_network.content_distribution 	repo-2 	24
scalar geant_cost_network.content_distribution 	client-0 	20
scalar geant_cost_network.content_distribution 	client-1 	10
scalar geant_cost_network.content_distribution 	client-2 	12
scalar geant_cost_network.content_distribution 	client-3 	9
scalar geant_cost_network.content_distribution 	client-4 	5
scalar geant_cost_network.content_distribution 	repo-0_card 	33376
scalar geant_cost_network.content_distribution 	repo-1_card 	33439
scalar geant_cost_network.content_distribution 	repo-2_card 	33185
scalar geant_cost_network.statistics 	repo_popularity[0] 	0.3146103286495
scalar geant_cost_network.statistics 	repo_popularity[1] 	0.33182472258399
scalar geant_cost_network.statistics 	repo_popularity[2] 	0.35356494876651
scalar geant_cost_network.statistics 	stabilization_time 	36060
scalar geant_cost_network.node[7].face$o[4].channel 	price[7] 	0
scalar geant_cost_network.node[7].face$o[4].channel 	represented_price[7] 	0
scalar geant_cost_network.node[8].face$o[3].channel 	price[8] 	0
scalar geant_cost_network.node[8].face$o[3].channel 	represented_price[8] 	0
scalar geant_cost_network.node[21].face$o[5].channel 	price[21] 	0
scalar geant_cost_network.node[21].face$o[5].channel 	represented_price[21] 	0
scalar geant_cost_network.node[22].face$o[1].channel 	price[22] 	0
scalar geant_cost_network.node[22].face$o[1].channel 	represented_price[22] 	0
scalar geant_cost_network.node[23].face$o[1].channel 	price[23] 	1
scalar geant_cost_network.node[23].face$o[1].channel 	represented_price[23] 	1
scalar geant_cost_network.node[24].face$o[1].channel 	price[24] 	10
scalar geant_cost_network.node[24].face$o[1].channel 	represented_price[24] 	10
scalar geant_cost_network.statistics 	p_hit 	0.1587163020891
scalar geant_cost_network.statistics 	interests 	114185.12
scalar geant_cost_network.statistics 	data 	78243.72
scalar geant_cost_network.statistics 	hdistance 	2.6735757602745
scalar geant_cost_network.statistics 	avg_time 	0.005862322749
scalar geant_cost_network.statistics 	downloads 	898260
scalar geant_cost_network.statistics 	total_cost 	1602861
scalar geant_cost_network.statistics 	total_replicas 	100000
scalar geant_cost_network.statistics 	inner_hit 	0.50466123394118
scalar geant_cost_network.statistics 	interests_sent 	898533
scalar geant_cost_network.node[0].core_layer 	interests[0] 	0
scalar geant_cost_network.node[0].core_layer 	data[0] 	0
scalar geant_cost_network.node[0].core_layer 	repo_int[0] 	444943
scalar geant_cost_network.node[0].content_store 	p_hit[0] 	-nan
scalar geant_cost_network.node[0].content_store 	hits[0] 	0
scalar geant_cost_network.node[0].content_store 	misses[0] 	0
scalar geant_cost_network.node[0].content_store 	decision_yes[0] 	0
scalar geant_cost_network.node[0].content_store 	decision_no[0] 	0
scalar geant_cost_network.node[0].content_store 	decision_ratio[0] 	0
scalar geant_cost_network.node[1].core_layer 	interests[1] 	0
scalar geant_cost_network.node[1].core_layer 	data[1] 	0
scalar geant_cost_network.node[1].content_store 	p_hit[1] 	-nan
scalar geant_cost_network.node[1].content_store 	hits[1] 	0
scalar geant_cost_network.node[1].content_store 	misses[1] 	0
scalar geant_cost_network.node[1].content_store 	decision_yes[1] 	0
scalar geant_cost_network.node[1].content_store 	decision_no[1] 	0
scalar geant_cost_network.node[1].content_store 	decision_ratio[1] 	0
scalar geant_cost_network.node[2].core_layer 	interests[2] 	0
scalar geant_cost_network.node[2].core_layer 	data[2] 	0
scalar geant_cost_network.node[2].content_store 	p_hit[2] 	-nan
scalar geant_cost_network.node[2].content_store 	hits[2] 	0
scalar geant_cost_network.node[2].content_store 	misses[2] 	0
scalar geant_cost_network.node[2].content_store 	decision_yes[2] 	0
scalar geant_cost_network.node[2].content_store 	decision_no[2] 	0
scalar geant_cost_network.node[2].content_store 	decision_ratio[2] 	0
scalar geant_cost_network.node[3].core_layer 	interests[3] 	164655
scalar geant_cost_network.node[3].core_layer 	data[3] 	140197
scalar geant_cost_network.node[3].content_store 	p_hit[3] 	0.14852874191491
scalar geant_cost_network.node[3].content_store 	hits[3] 	24456
scalar geant_cost_network.node[3].content_store 	misses[3] 	140199
scalar geant_cost_network.node[3].content_store 	decision_yes[3] 	1344
scalar geant_cost_network.node[3].content_store 	decision_no[3] 	138853
scalar geant_cost_network.node[3].content_store 	decision_ratio[3] 	0.0095865104103511
scalar geant_cost_network.node[4].core_layer 	interests[4] 	202091
scalar geant_cost_network.node[4].core_layer 	data[4] 	191328
scalar geant_cost_network.node[4].content_store 	p_hit[4] 	0.053243340871192
scalar geant_cost_network.node[4].content_store 	hits[4] 	10760
scalar geant_cost_network.node[4].content_store 	misses[4] 	191331
scalar geant_cost_network.node[4].content_store 	decision_yes[4] 	1957
scalar geant_cost_network.node[4].content_store 	decision_no[4] 	189371
scalar geant_cost_network.node[4].content_store 	decision_ratio[4] 	0.010228508111724
scalar geant_cost_network.node[5].core_layer 	interests[5] 	188391
scalar geant_cost_network.node[5].core_layer 	data[5] 	125061
scalar geant_cost_network.node[5].content_store 	p_hit[5] 	0.33593430684056
scalar geant_cost_network.node[5].content_store 	hits[5] 	63287
scalar geant_cost_network.node[5].content_store 	misses[5] 	125104
scalar geant_cost_network.node[5].content_store 	decision_yes[5] 	1249
scalar geant_cost_network.node[5].content_store 	decision_no[5] 	123812
scalar geant_cost_network.node[5].content_store 	decision_ratio[5] 	0.0099871262823742
scalar geant_cost_network.node[6].core_layer 	interests[6] 	70692
scalar geant_cost_network.node[6].core_layer 	data[6] 	62788
scalar geant_cost_network.node[6].content_store 	p_hit[6] 	0.11180897414135
scalar geant_cost_network.node[6].content_store 	hits[6] 	7904
scalar geant_cost_network.node[6].content_store 	misses[6] 	62788
scalar geant_cost_network.node[6].content_store 	decision_yes[6] 	634
scalar geant_cost_network.node[6].content_store 	decision_no[6] 	62154
scalar geant_cost_network.node[6].content_store 	decision_ratio[6] 	0.010097470854303
scalar geant_cost_network.node[7].core_layer 	interests[7] 	222326
scalar geant_cost_network.node[7].core_layer 	data[7] 	214683
scalar geant_cost_network.node[7].content_store 	p_hit[7] 	0.034368449933881
scalar geant_cost_network.node[7].content_store 	hits[7] 	7641
scalar geant_cost_network.node[7].content_store 	misses[7] 	214685
scalar geant_cost_network.node[7].content_store 	decision_yes[7] 	2116
scalar geant_cost_network.node[7].content_store 	decision_no[7] 	212567
scalar geant_cost_network.node[7].content_store 	decision_ratio[7] 	0.0098563929142037
scalar geant_cost_network.node[8].core_layer 	interests[8] 	227849
scalar geant_cost_network.node[8].core_layer 	data[8] 	217897
scalar geant_cost_network.node[8].content_store 	p_hit[8] 	0.043673661065004
scalar geant_cost_network.node[8].content_store 	hits[8] 	9951
scalar geant_cost_network.node[8].content_store 	misses[8] 	217898
scalar geant_cost_network.node[8].content_store 	decision_yes[8] 	2133
scalar geant_cost_network.node[8].content_store 	decision_no[8] 	215764
scalar geant_cost_network.node[8].content_store 	decision_ratio[8] 	0.0097890287612955
scalar geant_cost_network.node[9].core_layer 	interests[9] 	344978
scalar geant_cost_network.node[9].core_layer 	data[9] 	271322
scalar geant_cost_network.node[9].content_store 	p_hit[9] 	0.21315272278232
scalar geant_cost_network.node[9].content_store 	hits[9] 	73533
scalar geant_cost_network.node[9].content_store 	misses[9] 	271445
scalar geant_cost_network.node[9].content_store 	decision_yes[9] 	2675
scalar geant_cost_network.node[9].content_store 	decision_no[9] 	268647
scalar geant_cost_network.node[9].content_store 	decision_ratio[9] 	0.0098591341653091
scalar geant_cost_network.node[10].core_layer 	interests[10] 	188730
scalar geant_cost_network.node[10].core_layer 	data[10] 	120771
scalar geant_cost_network.node[10].content_store 	p_hit[10] 	0.35975202670482
scalar geant_cost_network.node[10].content_store 	hits[10] 	67896
scalar geant_cost_network.node[10].content_store 	misses[10] 	120834
scalar geant_cost_network.node[10].content_store 	decision_yes[10] 	1252
scalar geant_cost_network.node[10].content_store 	decision_no[10] 	119519
scalar geant_cost_network.node[10].content_store 	decision_ratio[10] 	0.010366727111641
scalar geant_cost_network.node[11].core_layer 	interests[11] 	0
scalar geant_cost_network.node[11].core_layer 	data[11] 	0
scalar geant_cost_network.node[11].content_store 	p_hit[11] 	-nan
scalar geant_cost_network.node[11].content_store 	hits[11] 	0
scalar geant_cost_network.node[11].content_store 	misses[11] 	0
scalar geant_cost_network.node[11].content_store 	decision_yes[11] 	0
scalar geant_cost_network.node[11].content_store 	decision_no[11] 	0
scalar geant_cost_network.node[11].content_store 	decision_ratio[11] 	0
scalar geant_cost_network.node[12].core_layer 	interests[12] 	281131
scalar geant_cost_network.node[12].core_layer 	data[12] 	212427
scalar geant_cost_network.node[12].content_store 	p_hit[12] 	0.24360529432898
scalar geant_cost_network.node[12].content_store 	hits[12] 	68485
scalar geant_cost_network.node[12].content_store 	misses[12] 	212646
scalar geant_cost_network.node[12].content_store 	decision_yes[12] 	2116
scalar geant_cost_network.node[12].content_store 	decision_no[12] 	210311
scalar geant_cost_network.node[12].content_store 	decision_ratio[12] 	0.0099610689789904
scalar geant_cost_network.node[13].core_layer 	interests[13] 	27364
scalar geant_cost_network.node[13].core_layer 	data[13] 	6125
scalar geant_cost_network.node[13].content_store 	p_hit[13] 	0.776165765239
scalar geant_cost_network.node[13].content_store 	hits[13] 	21239
scalar geant_cost_network.node[13].content_store 	misses[13] 	6125
scalar geant_cost_network.node[13].content_store 	decision_yes[13] 	53
scalar geant_cost_network.node[13].content_store 	decision_no[13] 	6072
scalar geant_cost_network.node[13].content_store 	decision_ratio[13] 	0.0086530612244898
scalar geant_cost_network.node[14].core_layer 	interests[14] 	63070
scalar geant_cost_network.node[14].core_layer 	data[14] 	43929
scalar geant_cost_network.node[14].content_store 	p_hit[14] 	0.30337719993658
scalar geant_cost_network.node[14].content_store 	hits[14] 	19134
scalar geant_cost_network.node[14].content_store 	misses[14] 	43936
scalar geant_cost_network.node[14].content_store 	decision_yes[14] 	439
scalar geant_cost_network.node[14].content_store 	decision_no[14] 	43490
scalar geant_cost_network.node[14].content_store 	decision_ratio[14] 	0.0099933984383892
scalar geant_cost_network.node[15].core_layer 	interests[15] 	0
scalar geant_cost_network.node[15].core_layer 	data[15] 	0
scalar geant_cost_network.node[15].content_store 	p_hit[15] 	-nan
scalar geant_cost_network.node[15].content_store 	hits[15] 	0
scalar geant_cost_network.node[15].content_store 	misses[15] 	0
scalar geant_cost_network.node[15].content_store 	decision_yes[15] 	0
scalar geant_cost_network.node[15].content_store 	decision_no[15] 	0
scalar geant_cost_network.node[15].content_store 	decision_ratio[15] 	0
scalar geant_cost_network.node[16].core_layer 	interests[16] 	0
scalar geant_cost_network.node[16].core_layer 	data[16] 	0
scalar geant_cost_network.node[16].content_store 	p_hit[16] 	-nan
scalar geant_cost_network.node[16].content_store 	hits[16] 	0
scalar geant_cost_network.node[16].content_store 	misses[16] 	0
scalar geant_cost_network.node[16].content_store 	decision_yes[16] 	0
scalar geant_cost_network.node[16].content_store 	decision_no[16] 	0
scalar geant_cost_network.node[16].content_store 	decision_ratio[16] 	0
scalar geant_cost_network.node[17].core_layer 	interests[17] 	0
scalar geant_cost_network.node[17].core_layer 	data[17] 	0
scalar geant_cost_network.node[17].content_store 	p_hit[17] 	-nan
scalar geant_cost_network.node[17].content_store 	hits[17] 	0
scalar geant_cost_network.node[17].content_store 	misses[17] 	0
scalar geant_cost_network.node[17].content_store 	decision_yes[17] 	0
scalar geant_cost_network.node[17].content_store 	decision_no[17] 	0
scalar geant_cost_network.node[17].content_store 	decision_ratio[17] 	0
scalar geant_cost_network.node[18].core_layer 	interests[18] 	96417
scalar geant_cost_network.node[18].core_layer 	data[18] 	83581
scalar geant_cost_network.node[18].content_store 	p_hit[18] 	0.13313004968004
scalar geant_cost_network.node[18].content_store 	hits[18] 	12836
scalar geant_cost_network.node[18].content_store 	misses[18] 	83581
scalar geant_cost_network.node[18].content_store 	decision_yes[18] 	874
scalar geant_cost_network.node[18].content_store 	decision_no[18] 	82707
scalar geant_cost_network.node[18].content_store 	decision_ratio[18] 	0.010456922027734
scalar geant_cost_network.node[19].core_layer 	interests[19] 	0
scalar geant_cost_network.node[19].core_layer 	data[19] 	0
scalar geant_cost_network.node[19].content_store 	p_hit[19] 	-nan
scalar geant_cost_network.node[19].content_store 	hits[19] 	0
scalar geant_cost_network.node[19].content_store 	misses[19] 	0
scalar geant_cost_network.node[19].content_store 	decision_yes[19] 	0
scalar geant_cost_network.node[19].content_store 	decision_no[19] 	0
scalar geant_cost_network.node[19].content_store 	decision_ratio[19] 	0
scalar geant_cost_network.node[20].core_layer 	interests[20] 	180598
scalar geant_cost_network.node[20].core_layer 	data[20] 	120895
scalar geant_cost_network.node[20].content_store 	p_hit[20] 	0.33029158683928
scalar geant_cost_network.node[20].content_store 	hits[20] 	59650
scalar geant_cost_network.node[20].content_store 	misses[20] 	120948
scalar geant_cost_network.node[20].content_store 	decision_yes[20] 	1276
scalar geant_cost_network.node[20].content_store 	decision_no[20] 	119619
scalar geant_cost_network.node[20].content_store 	decision_ratio[20] 	0.010554613507589
scalar geant_cost_network.node[21].core_layer 	interests[21] 	151393
scalar geant_cost_network.node[21].core_layer 	data[21] 	145089
scalar geant_cost_network.node[21].content_store 	p_hit[21] 	0.04163997014393
scalar geant_cost_network.node[21].content_store 	hits[21] 	6304
scalar geant_cost_network.node[21].content_store 	misses[21] 	145089
scalar geant_cost_network.node[21].content_store 	decision_yes[21] 	1455
scalar geant_cost_network.node[21].content_store 	decision_no[21] 	143634
scalar geant_cost_network.node[21].content_store 	decision_ratio[21] 	0.010028327440399
scalar geant_cost_network.node[22].core_layer 	interests[22] 	147883
scalar geant_cost_network.node[22].core_layer 	repo_load[22] 	147883
scalar geant_cost_network.node[22].core_layer 	data[22] 	0
scalar geant_cost_network.node[22].content_store 	p_hit[22] 	0
scalar geant_cost_network.node[22].content_store 	hits[22] 	0
scalar geant_cost_network.node[22].content_store 	misses[22] 	147883
scalar geant_cost_network.node[22].content_store 	decision_yes[22] 	0
scalar geant_cost_network.node[22].content_store 	decision_no[22] 	147883
scalar geant_cost_network.node[22].content_store 	decision_ratio[22] 	0
scalar geant_cost_network.node[23].core_layer 	interests[23] 	151971
scalar geant_cost_network.node[23].core_layer 	repo_load[23] 	151971
scalar geant_cost_network.node[23].core_layer 	data[23] 	0
scalar geant_cost_network.node[23].content_store 	p_hit[23] 	0
scalar geant_cost_network.node[23].content_store 	hits[23] 	0
scalar geant_cost_network.node[23].content_store 	misses[23] 	151971
scalar geant_cost_network.node[23].content_store 	decision_yes[23] 	0
scalar geant_cost_network.node[23].content_store 	decision_no[23] 	151971
scalar geant_cost_network.node[23].content_store 	decision_ratio[23] 	0
scalar geant_cost_network.node[24].core_layer 	interests[24] 	145089
scalar geant_cost_network.node[24].core_layer 	repo_load[24] 	145089
scalar geant_cost_network.node[24].core_layer 	data[24] 	0
scalar geant_cost_network.node[24].content_store 	p_hit[24] 	0
scalar geant_cost_network.node[24].content_store 	hits[24] 	0
scalar geant_cost_network.node[24].content_store 	misses[24] 	145089
scalar geant_cost_network.node[24].content_store 	decision_yes[24] 	0
scalar geant_cost_network.node[24].content_store 	decision_no[24] 	145089
scalar geant_cost_network.node[24].content_store 	decision_ratio[24] 	0
scalar geant_cost_network.client[5] 	hdistance[5] 	2.4374186297529
scalar geant_cost_network.client[5] 	downloads[5] 	179734
scalar geant_cost_network.client[5] 	avg_time[5] 	0.00747616619
scalar geant_cost_network.client[5] 	interests_sent[5] 	179775
scalar geant_cost_network.client[9] 	hdistance[9] 	2.4838174504093
scalar geant_cost_network.client[9] 	downloads[9] 	180225
scalar geant_cost_network.client[9] 	avg_time[9] 	0.004717816806
scalar geant_cost_network.client[9] 	interests_sent[9] 	180270
scalar geant_cost_network.client[10] 	hdistance[10] 	3.1065628476085
scalar geant_cost_network.client[10] 	downloads[10] 	179800
scalar geant_cost_network.client[10] 	avg_time[10] 	0.005995508743
scalar geant_cost_network.client[10] 	interests_sent[10] 	179863
scalar geant_cost_network.client[12] 	hdistance[12] 	2.6099246827351
scalar geant_cost_network.client[12] 	downloads[12] 	179109
scalar geant_cost_network.client[12] 	avg_time[12] 	0.005667416856
scalar geant_cost_network.client[12] 	interests_sent[12] 	179180
scalar geant_cost_network.client[20] 	hdistance[20] 	2.7301551908669
scalar geant_cost_network.client[20] 	downloads[20] 	179392
scalar geant_cost_network.client[20] 	avg_time[20] 	0.005454705151
scalar geant_cost_network.client[20] 	interests_sent[20] 	179445
