version 2
run General-48-20140426-19:57:54-13559
attr D costprob0.02
attr F nrr
attr R lru
attr a 1
attr configname General
attr csize 1000
attr ctlg 10^5
attr datetime 20140426-19:57:54
attr experiment General
attr inifile omnetpp.ini
attr iterationvars "$net=one_cache_scenario, $rep=2, $priceratiovalue=1, $a=1, $ctlg=10^5, $F=nrr, $ttl=1000, $D=costprob0.02, $xi=64, $R=lru, $csize=1000"
attr iterationvars2 "$net=one_cache_scenario, $rep=2, $priceratiovalue=1, $a=1, $ctlg=10^5, $F=nrr, $ttl=1000, $D=costprob0.02, $xi=64, $R=lru, $csize=1000, $repetition=0"
attr measurement "$net=one_cache_scenario, $rep=2, $priceratiovalue=1, $a=1, $ctlg=10^5, $F=nrr, $ttl=1000, $D=costprob0.02, $xi=64, $R=lru, $csize=1000"
attr net one_cache_scenario
attr network networks.${net=one_cache_scenario}_network
attr priceratiovalue 1
attr processid 13559
attr rep 2
attr repetition 0
attr replication #0
attr resultdir results
attr runnumber 48
attr seedset 2
attr ttl 1000
attr xi 64

scalar . 	a 	1
scalar . 	csize 	1000
scalar . 	priceratiovalue 	1
scalar . 	rep 	2
scalar . 	ttl 	1000
scalar . 	xi 	64
scalar one_cache_scenario_network.content_distribution 	repo-0 	3
scalar one_cache_scenario_network.content_distribution 	repo-1 	4
scalar one_cache_scenario_network.content_distribution 	client-0 	0
scalar one_cache_scenario_network.content_distribution 	repo-0_card 	50289
scalar one_cache_scenario_network.content_distribution 	repo-1_card 	49711
scalar one_cache_scenario_network.statistics 	p_hit 	0.28066158055839
scalar one_cache_scenario_network.statistics 	interests 	68998.4
scalar one_cache_scenario_network.statistics 	data 	33088.8
scalar one_cache_scenario_network.statistics 	hdistance 	0.92144718960946
scalar one_cache_scenario_network.statistics 	avg_time 	0
scalar one_cache_scenario_network.statistics 	downloads 	179548
scalar one_cache_scenario_network.statistics 	total_cost 	41360
scalar one_cache_scenario_network.statistics 	interests_sent 	179548
scalar one_cache_scenario_network.node[0].core_layer 	interests[0] 	179548
scalar one_cache_scenario_network.node[0].core_layer 	data[0] 	82722
scalar one_cache_scenario_network.node[0].core_layer 	repo_int[0] 	82722
scalar one_cache_scenario_network.node[0].content_store 	p_hit[0] 	0.53927640519527
scalar one_cache_scenario_network.node[0].content_store 	hits[0] 	96826
scalar one_cache_scenario_network.node[0].content_store 	misses[0] 	82722
scalar one_cache_scenario_network.node[0].content_store 	decision_yes[0] 	878
scalar one_cache_scenario_network.node[0].content_store 	decision_no[0] 	81844
scalar one_cache_scenario_network.node[1].core_layer 	interests[1] 	40773
scalar one_cache_scenario_network.node[1].core_layer 	data[1] 	40773
scalar one_cache_scenario_network.node[1].content_store 	p_hit[1] 	0
scalar one_cache_scenario_network.node[1].content_store 	hits[1] 	0
scalar one_cache_scenario_network.node[1].content_store 	misses[1] 	40773
scalar one_cache_scenario_network.node[1].content_store 	decision_yes[1] 	0
scalar one_cache_scenario_network.node[1].content_store 	decision_no[1] 	40773
scalar one_cache_scenario_network.node[2].core_layer 	interests[2] 	41949
scalar one_cache_scenario_network.node[2].core_layer 	data[2] 	41949
scalar one_cache_scenario_network.node[2].content_store 	p_hit[2] 	0
scalar one_cache_scenario_network.node[2].content_store 	hits[2] 	0
scalar one_cache_scenario_network.node[2].content_store 	misses[2] 	41949
scalar one_cache_scenario_network.node[2].content_store 	decision_yes[2] 	0
scalar one_cache_scenario_network.node[2].content_store 	decision_no[2] 	41949
scalar one_cache_scenario_network.node[3].core_layer 	interests[3] 	40773
scalar one_cache_scenario_network.node[3].core_layer 	repo_load[3] 	40773
scalar one_cache_scenario_network.node[3].core_layer 	data[3] 	0
scalar one_cache_scenario_network.node[3].content_store 	p_hit[3] 	0
scalar one_cache_scenario_network.node[3].content_store 	hits[3] 	0
scalar one_cache_scenario_network.node[3].content_store 	misses[3] 	40773
scalar one_cache_scenario_network.node[3].content_store 	decision_yes[3] 	0
scalar one_cache_scenario_network.node[3].content_store 	decision_no[3] 	40773
scalar one_cache_scenario_network.node[4].core_layer 	interests[4] 	41949
scalar one_cache_scenario_network.node[4].core_layer 	repo_load[4] 	41949
scalar one_cache_scenario_network.node[4].core_layer 	data[4] 	0
scalar one_cache_scenario_network.node[4].content_store 	p_hit[4] 	0
scalar one_cache_scenario_network.node[4].content_store 	hits[4] 	0
scalar one_cache_scenario_network.node[4].content_store 	misses[4] 	41949
scalar one_cache_scenario_network.node[4].content_store 	decision_yes[4] 	0
scalar one_cache_scenario_network.node[4].content_store 	decision_no[4] 	41949
scalar one_cache_scenario_network.client[0] 	hdistance[0] 	0.92144718960946
scalar one_cache_scenario_network.client[0] 	downloads[0] 	179548
scalar one_cache_scenario_network.client[0] 	avg_time[0] 	0
scalar one_cache_scenario_network.client[0] 	interests_sent[0] 	179548
