version 2
run General-99-20140502-01:17:23-8973
attr D fix0.5
attr F nrr
attr R lru
attr a 1.2
attr configname General
attr csize 1e3
attr ctlg 1e5
attr datetime 20140502-01:17:23
attr experiment General
attr inifile omnetpp.ini
attr iterationvars "$net=three_caches_scenario_3_links, $rep=1, $priceratiovalue=1, $weights=0.7_0.15_0.15, $a=1.2, $ctlg=1e5, $F=nrr, $ttl=1000, $D=fix0.5, $xi=1, $R=lru, $csize=1e3"
attr iterationvars2 "$net=three_caches_scenario_3_links, $rep=1, $priceratiovalue=1, $weights=0.7_0.15_0.15, $a=1.2, $ctlg=1e5, $F=nrr, $ttl=1000, $D=fix0.5, $xi=1, $R=lru, $csize=1e3, $repetition=0"
attr measurement "$net=three_caches_scenario_3_links, $rep=1, $priceratiovalue=1, $weights=0.7_0.15_0.15, $a=1.2, $ctlg=1e5, $F=nrr, $ttl=1000, $D=fix0.5, $xi=1, $R=lru, $csize=1e3"
attr net three_caches_scenario_3_links
attr network networks.${net=three_caches_scenario_3_links}_network
attr priceratiovalue 1
attr processid 8973
attr rep 1
attr repetition 0
attr replication #0
attr resultdir results
attr runnumber 99
attr seedset 1
attr ttl 1000
attr weights 0.7_0.15_0.15
attr xi 1

scalar . 	a 	1.2
scalar . 	csize 	1e3
scalar . 	ctlg 	1e5
scalar . 	priceratiovalue 	1
scalar . 	rep 	1
scalar . 	ttl 	1000
scalar . 	xi 	1
scalar three_caches_scenario_3_links_network.content_distribution 	repo-0 	4
scalar three_caches_scenario_3_links_network.content_distribution 	repo-1 	5
scalar three_caches_scenario_3_links_network.content_distribution 	repo-2 	6
scalar three_caches_scenario_3_links_network.content_distribution 	client-0 	0
scalar three_caches_scenario_3_links_network.content_distribution 	repo-0_card 	70018
scalar three_caches_scenario_3_links_network.content_distribution 	repo-1_card 	15023
scalar three_caches_scenario_3_links_network.content_distribution 	repo-2_card 	14959
scalar three_caches_scenario_3_links_network.statistics 	p_hit 	0.50889725698675
scalar three_caches_scenario_3_links_network.statistics 	interests 	38695.714285714
scalar three_caches_scenario_3_links_network.statistics 	data 	12991.857142857
scalar three_caches_scenario_3_links_network.statistics 	hdistance 	0.54906712166601
scalar three_caches_scenario_3_links_network.statistics 	avg_time 	0
scalar three_caches_scenario_3_links_network.statistics 	downloads 	179927
scalar three_caches_scenario_3_links_network.statistics 	total_cost 	7849
scalar three_caches_scenario_3_links_network.statistics 	total_replicas 	100000
scalar three_caches_scenario_3_links_network.statistics 	interests_sent 	179927
scalar three_caches_scenario_3_links_network.node[0].core_layer 	interests[0] 	179927
scalar three_caches_scenario_3_links_network.node[0].core_layer 	data[0] 	48861
scalar three_caches_scenario_3_links_network.node[0].core_layer 	repo_int[0] 	42082
scalar three_caches_scenario_3_links_network.node[0].content_store 	p_hit[0] 	0.72843986727951
scalar three_caches_scenario_3_links_network.node[0].content_store 	hits[0] 	131066
scalar three_caches_scenario_3_links_network.node[0].content_store 	misses[0] 	48861
scalar three_caches_scenario_3_links_network.node[0].content_store 	decision_yes[0] 	24584
scalar three_caches_scenario_3_links_network.node[0].content_store 	decision_no[0] 	24277
scalar three_caches_scenario_3_links_network.node[1].core_layer 	interests[1] 	34233
scalar three_caches_scenario_3_links_network.node[1].core_layer 	data[1] 	34233
scalar three_caches_scenario_3_links_network.node[1].content_store 	p_hit[1] 	0
scalar three_caches_scenario_3_links_network.node[1].content_store 	hits[1] 	0
scalar three_caches_scenario_3_links_network.node[1].content_store 	misses[1] 	34233
scalar three_caches_scenario_3_links_network.node[1].content_store 	decision_yes[1] 	0
scalar three_caches_scenario_3_links_network.node[1].content_store 	decision_no[1] 	34233
scalar three_caches_scenario_3_links_network.node[2].core_layer 	interests[2] 	7787
scalar three_caches_scenario_3_links_network.node[2].core_layer 	data[2] 	3964
scalar three_caches_scenario_3_links_network.node[2].content_store 	p_hit[2] 	0.49094644921022
scalar three_caches_scenario_3_links_network.node[2].content_store 	hits[2] 	3823
scalar three_caches_scenario_3_links_network.node[2].content_store 	misses[2] 	3964
scalar three_caches_scenario_3_links_network.node[2].content_store 	decision_yes[2] 	1964
scalar three_caches_scenario_3_links_network.node[2].content_store 	decision_no[2] 	2000
scalar three_caches_scenario_3_links_network.node[3].core_layer 	interests[3] 	6841
scalar three_caches_scenario_3_links_network.node[3].core_layer 	data[3] 	3885
scalar three_caches_scenario_3_links_network.node[3].content_store 	p_hit[3] 	0.43210057009209
scalar three_caches_scenario_3_links_network.node[3].content_store 	hits[3] 	2956
scalar three_caches_scenario_3_links_network.node[3].content_store 	misses[3] 	3885
scalar three_caches_scenario_3_links_network.node[3].content_store 	decision_yes[3] 	1918
scalar three_caches_scenario_3_links_network.node[3].content_store 	decision_no[3] 	1967
scalar three_caches_scenario_3_links_network.node[4].core_layer 	interests[4] 	34233
scalar three_caches_scenario_3_links_network.node[4].core_layer 	repo_load[4] 	34233
scalar three_caches_scenario_3_links_network.node[4].core_layer 	data[4] 	0
scalar three_caches_scenario_3_links_network.node[4].content_store 	p_hit[4] 	0
scalar three_caches_scenario_3_links_network.node[4].content_store 	hits[4] 	0
scalar three_caches_scenario_3_links_network.node[4].content_store 	misses[4] 	34233
scalar three_caches_scenario_3_links_network.node[4].content_store 	decision_yes[4] 	0
scalar three_caches_scenario_3_links_network.node[4].content_store 	decision_no[4] 	34233
scalar three_caches_scenario_3_links_network.node[5].core_layer 	interests[5] 	3964
scalar three_caches_scenario_3_links_network.node[5].core_layer 	repo_load[5] 	3964
scalar three_caches_scenario_3_links_network.node[5].core_layer 	data[5] 	0
scalar three_caches_scenario_3_links_network.node[5].content_store 	p_hit[5] 	0
scalar three_caches_scenario_3_links_network.node[5].content_store 	hits[5] 	0
scalar three_caches_scenario_3_links_network.node[5].content_store 	misses[5] 	3964
scalar three_caches_scenario_3_links_network.node[5].content_store 	decision_yes[5] 	0
scalar three_caches_scenario_3_links_network.node[5].content_store 	decision_no[5] 	3964
scalar three_caches_scenario_3_links_network.node[6].core_layer 	interests[6] 	3885
scalar three_caches_scenario_3_links_network.node[6].core_layer 	repo_load[6] 	3885
scalar three_caches_scenario_3_links_network.node[6].core_layer 	data[6] 	0
scalar three_caches_scenario_3_links_network.node[6].content_store 	p_hit[6] 	0
scalar three_caches_scenario_3_links_network.node[6].content_store 	hits[6] 	0
scalar three_caches_scenario_3_links_network.node[6].content_store 	misses[6] 	3885
scalar three_caches_scenario_3_links_network.node[6].content_store 	decision_yes[6] 	0
scalar three_caches_scenario_3_links_network.node[6].content_store 	decision_no[6] 	3885
scalar three_caches_scenario_3_links_network.client[0] 	hdistance[0] 	0.54906712166601
scalar three_caches_scenario_3_links_network.client[0] 	downloads[0] 	179927
scalar three_caches_scenario_3_links_network.client[0] 	avg_time[0] 	0
scalar three_caches_scenario_3_links_network.client[0] 	interests_sent[0] 	179927
