version 2
run General-5427-20140423-20:49:08-32650
attr D fix0.1
attr F nrr
attr R lru
attr a 1.2
attr configname General
attr csize 2
attr ctlg 10^3
attr datetime 20140423-20:49:08
attr experiment General
attr inifile omnetpp.ini
attr iterationvars "$net=simple_scenario, $rep=16, $priceratiovalue=1, $a=1.2, $ctlg=10^3, $F=nrr, $ttl=1000, $D=fix0.1, $R=lru, $csize=2"
attr iterationvars2 "$net=simple_scenario, $rep=16, $priceratiovalue=1, $a=1.2, $ctlg=10^3, $F=nrr, $ttl=1000, $D=fix0.1, $R=lru, $csize=2, $repetition=0"
attr measurement "$net=simple_scenario, $rep=16, $priceratiovalue=1, $a=1.2, $ctlg=10^3, $F=nrr, $ttl=1000, $D=fix0.1, $R=lru, $csize=2"
attr net simple_scenario
attr network networks.${net=simple_scenario}_network
attr priceratiovalue 1
attr processid 32650
attr rep 16
attr repetition 0
attr replication #0
attr resultdir results
attr runnumber 5427
attr seedset 16
attr ttl 1000

scalar . 	a 	1.2
scalar . 	csize 	2
scalar . 	priceratiovalue 	1
scalar . 	rep 	16
scalar . 	ttl 	1000
scalar simple_scenario_network.content_distribution 	repo-0 	3
scalar simple_scenario_network.content_distribution 	repo-1 	4
scalar simple_scenario_network.content_distribution 	client-0 	0
scalar simple_scenario_network.content_distribution 	repo-0_card 	495
scalar simple_scenario_network.content_distribution 	repo-1_card 	505
scalar simple_scenario_network.statistics 	p_hit 	0.12518150722719
scalar simple_scenario_network.statistics 	interests 	90630
scalar simple_scenario_network.statistics 	data 	54569.2
scalar simple_scenario_network.statistics 	hdistance 	2.1986422930162
scalar simple_scenario_network.statistics 	avg_time 	0.00198551633
scalar simple_scenario_network.statistics 	downloads 	180304
scalar simple_scenario_network.statistics 	total_cost 	61788
scalar simple_scenario_network.node[0].core_layer 	interests[0] 	180304
scalar simple_scenario_network.node[0].core_layer 	data[0] 	149268
scalar simple_scenario_network.node[0].core_layer 	repo_int[0] 	123578
scalar simple_scenario_network.node[0].content_store 	p_hit[0] 	0.17213151122549
scalar simple_scenario_network.node[0].content_store 	hits[0] 	31036
scalar simple_scenario_network.node[0].content_store 	misses[0] 	149268
scalar simple_scenario_network.node[1].core_layer 	interests[1] 	65090
scalar simple_scenario_network.node[1].core_layer 	data[1] 	55651
scalar simple_scenario_network.node[1].content_store 	p_hit[1] 	0.14501459517591
scalar simple_scenario_network.node[1].content_store 	hits[1] 	9439
scalar simple_scenario_network.node[1].content_store 	misses[1] 	55651
scalar simple_scenario_network.node[2].core_layer 	interests[2] 	84178
scalar simple_scenario_network.node[2].core_layer 	data[2] 	67927
scalar simple_scenario_network.node[2].content_store 	p_hit[2] 	0.19305519256813
scalar simple_scenario_network.node[2].content_store 	hits[2] 	16251
scalar simple_scenario_network.node[2].content_store 	misses[2] 	67927
scalar simple_scenario_network.node[3].core_layer 	interests[3] 	55651
scalar simple_scenario_network.node[3].core_layer 	repo_load[3] 	55651
scalar simple_scenario_network.node[3].core_layer 	data[3] 	0
scalar simple_scenario_network.node[3].content_store 	p_hit[3] 	0
scalar simple_scenario_network.node[3].content_store 	hits[3] 	0
scalar simple_scenario_network.node[3].content_store 	misses[3] 	55651
scalar simple_scenario_network.node[4].core_layer 	interests[4] 	67927
scalar simple_scenario_network.node[4].core_layer 	repo_load[4] 	67927
scalar simple_scenario_network.node[4].core_layer 	data[4] 	0
scalar simple_scenario_network.node[4].content_store 	p_hit[4] 	0
scalar simple_scenario_network.node[4].content_store 	hits[4] 	0
scalar simple_scenario_network.node[4].content_store 	misses[4] 	67927
scalar simple_scenario_network.client[0] 	hdistance[0] 	2.1986422930162
scalar simple_scenario_network.client[0] 	downloads[0] 	180304
scalar simple_scenario_network.client[0] 	avg_time[0] 	0.00198551633
