version 2
run General-1-20140408-17:07:53-22516
attr D fix0.2
attr F spr
attr R lru
attr a 3
attr configname General
attr csize 2
attr datetime 20140408-17:07:53
attr experiment General
attr inifile omnetpp.ini
attr iterationvars "$net=simple_scenario, $rep=0, $a=3, $F=spr, $ttl=1000, $D=fix0.2, $R=lru, $csize=2"
attr iterationvars2 "$net=simple_scenario, $rep=0, $a=3, $F=spr, $ttl=1000, $D=fix0.2, $R=lru, $csize=2, $repetition=0"
attr measurement "$net=simple_scenario, $rep=0, $a=3, $F=spr, $ttl=1000, $D=fix0.2, $R=lru, $csize=2"
attr net simple_scenario
attr network networks.${net=simple_scenario}_network
attr processid 22516
attr rep 0
attr repetition 0
attr replication #0
attr resultdir results
attr runnumber 1
attr seedset 0
attr ttl 1000

scalar . 	a 	3
scalar . 	csize 	2
scalar . 	rep 	0
scalar . 	ttl 	1000
scalar simple_scenario_network.content_distribution 	repo-0 	3
scalar simple_scenario_network.content_distribution 	repo-1 	4
scalar simple_scenario_network.content_distribution 	client-0 	0
scalar simple_scenario_network.content_distribution 	repo-0_card 	4915
scalar simple_scenario_network.content_distribution 	repo-1_card 	5085
scalar simple_scenario_network.statistics 	p_hit 	0.79245283018868
scalar simple_scenario_network.statistics 	interests 	21.2
scalar simple_scenario_network.statistics 	data 	3.2
scalar simple_scenario_network.statistics 	hdistance 	0.24444444444444
scalar simple_scenario_network.statistics 	avg_time 	0.001902259846
scalar simple_scenario_network.statistics 	downloads 	90
scalar simple_scenario_network.statistics 	total_cost 	6
scalar simple_scenario_network.node[0].core_layer 	interests[0] 	90
scalar simple_scenario_network.node[0].core_layer 	data[0] 	10
scalar simple_scenario_network.node[0].core_layer 	repo_int[0] 	6
scalar simple_scenario_network.node[0].content_store 	p_hit[0] 	0.88888888888889
scalar simple_scenario_network.node[0].content_store 	hits[0] 	80
scalar simple_scenario_network.node[0].content_store 	misses[0] 	10
scalar simple_scenario_network.node[1].core_layer 	interests[1] 	1
scalar simple_scenario_network.node[1].core_layer 	data[1] 	1
scalar simple_scenario_network.node[1].content_store 	p_hit[1] 	0
scalar simple_scenario_network.node[1].content_store 	hits[1] 	0
scalar simple_scenario_network.node[1].content_store 	misses[1] 	1
scalar simple_scenario_network.node[2].core_layer 	interests[2] 	9
scalar simple_scenario_network.node[2].core_layer 	data[2] 	5
scalar simple_scenario_network.node[2].content_store 	p_hit[2] 	0.44444444444444
scalar simple_scenario_network.node[2].content_store 	hits[2] 	4
scalar simple_scenario_network.node[2].content_store 	misses[2] 	5
scalar simple_scenario_network.node[3].core_layer 	interests[3] 	1
scalar simple_scenario_network.node[3].core_layer 	repo_load[3] 	1
scalar simple_scenario_network.node[3].core_layer 	data[3] 	0
scalar simple_scenario_network.node[3].content_store 	p_hit[3] 	0
scalar simple_scenario_network.node[3].content_store 	hits[3] 	0
scalar simple_scenario_network.node[3].content_store 	misses[3] 	1
scalar simple_scenario_network.node[4].core_layer 	interests[4] 	5
scalar simple_scenario_network.node[4].core_layer 	repo_load[4] 	5
scalar simple_scenario_network.node[4].core_layer 	data[4] 	0
scalar simple_scenario_network.node[4].content_store 	p_hit[4] 	0
scalar simple_scenario_network.node[4].content_store 	hits[4] 	0
scalar simple_scenario_network.node[4].content_store 	misses[4] 	5
scalar simple_scenario_network.client[0] 	hdistance[0] 	0.24444444444444
scalar simple_scenario_network.client[0] 	downloads[0] 	90
scalar simple_scenario_network.client[0] 	avg_time[0] 	0.001902259846
