version 2
run General-150-20140424-16:21:55-27291
attr D fix1
attr F nrr
attr R lru
attr a 0
attr configname General
attr csize 10
attr ctlg 10^3
attr datetime 20140424-16:21:55
attr experiment General
attr inifile omnetpp.ini
attr iterationvars "$net=simple_scenario, $rep=3, $priceratiovalue=6, $a=0, $ctlg=10^3, $F=nrr, $ttl=1000, $D=fix1, $R=lru, $csize=10"
attr iterationvars2 "$net=simple_scenario, $rep=3, $priceratiovalue=6, $a=0, $ctlg=10^3, $F=nrr, $ttl=1000, $D=fix1, $R=lru, $csize=10, $repetition=0"
attr measurement "$net=simple_scenario, $rep=3, $priceratiovalue=6, $a=0, $ctlg=10^3, $F=nrr, $ttl=1000, $D=fix1, $R=lru, $csize=10"
attr net simple_scenario
attr network networks.${net=simple_scenario}_network
attr priceratiovalue 6
attr processid 27291
attr rep 3
attr repetition 0
attr replication #0
attr resultdir results
attr runnumber 150
attr seedset 3
attr ttl 1000

scalar . 	a 	0
scalar . 	csize 	10
scalar . 	priceratiovalue 	6
scalar . 	rep 	3
scalar . 	ttl 	1000
scalar simple_scenario_network.content_distribution 	repo-0 	3
scalar simple_scenario_network.content_distribution 	repo-1 	4
scalar simple_scenario_network.content_distribution 	client-0 	0
scalar simple_scenario_network.content_distribution 	repo-0_card 	524
scalar simple_scenario_network.content_distribution 	repo-1_card 	476
scalar simple_scenario_network.statistics 	p_hit 	0.0069228941850308
scalar simple_scenario_network.statistics 	interests 	106920.6
scalar simple_scenario_network.statistics 	data 	70907.4
scalar simple_scenario_network.statistics 	hdistance 	2.9483741982062
scalar simple_scenario_network.statistics 	avg_time 	0.001999670792
scalar simple_scenario_network.statistics 	downloads 	180065
scalar simple_scenario_network.statistics 	total_cost 	85104
scalar simple_scenario_network.node[0].core_layer 	interests[0] 	180066
scalar simple_scenario_network.node[0].core_layer 	data[0] 	178172
scalar simple_scenario_network.node[0].core_layer 	repo_int[0] 	176365
scalar simple_scenario_network.node[0].content_store 	p_hit[0] 	0.01051836548821
scalar simple_scenario_network.node[0].content_store 	hits[0] 	1894
scalar simple_scenario_network.node[0].content_store 	misses[0] 	178172
scalar simple_scenario_network.node[1].core_layer 	interests[1] 	93355
scalar simple_scenario_network.node[1].core_layer 	data[1] 	92490
scalar simple_scenario_network.node[1].content_store 	p_hit[1] 	0.0092657061753521
scalar simple_scenario_network.node[1].content_store 	hits[1] 	865
scalar simple_scenario_network.node[1].content_store 	misses[1] 	92490
scalar simple_scenario_network.node[2].core_layer 	interests[2] 	84817
scalar simple_scenario_network.node[2].core_layer 	data[2] 	83875
scalar simple_scenario_network.node[2].content_store 	p_hit[2] 	0.011106264074419
scalar simple_scenario_network.node[2].content_store 	hits[2] 	942
scalar simple_scenario_network.node[2].content_store 	misses[2] 	83875
scalar simple_scenario_network.node[3].core_layer 	interests[3] 	92490
scalar simple_scenario_network.node[3].core_layer 	repo_load[3] 	92490
scalar simple_scenario_network.node[3].core_layer 	data[3] 	0
scalar simple_scenario_network.node[3].content_store 	p_hit[3] 	0
scalar simple_scenario_network.node[3].content_store 	hits[3] 	0
scalar simple_scenario_network.node[3].content_store 	misses[3] 	92490
scalar simple_scenario_network.node[4].core_layer 	interests[4] 	83875
scalar simple_scenario_network.node[4].core_layer 	repo_load[4] 	83875
scalar simple_scenario_network.node[4].core_layer 	data[4] 	0
scalar simple_scenario_network.node[4].content_store 	p_hit[4] 	0
scalar simple_scenario_network.node[4].content_store 	hits[4] 	0
scalar simple_scenario_network.node[4].content_store 	misses[4] 	83875
scalar simple_scenario_network.client[0] 	hdistance[0] 	2.9483741982062
scalar simple_scenario_network.client[0] 	downloads[0] 	180065
scalar simple_scenario_network.client[0] 	avg_time[0] 	0.001999670792
