version 2
run General-49-20140627-19:48:17-22871
attr D lce
attr F nrr
attr R lru
attr a 1
attr configname General
attr csize 1e3
attr ctlg 1e5
attr datetime 20140627-19:48:17
attr experiment General
attr inifile omnetpp.ini
attr iterationvars "$net=abilene_cost, $rep=16, $priceratiovalue=10, $weights=0.333_0.333_0.334, $lambda=100, $a=1, $ctlg=1e5, $F=nrr, $ttl=1000, $D=lce, $xi=1, $R=lru, $csize=1e3, $pricebits=0, $window=60, $variance=0.05, $mytime=1800"
attr iterationvars2 "$net=abilene_cost, $rep=16, $priceratiovalue=10, $weights=0.333_0.333_0.334, $lambda=100, $a=1, $ctlg=1e5, $F=nrr, $ttl=1000, $D=lce, $xi=1, $R=lru, $csize=1e3, $pricebits=0, $window=60, $variance=0.05, $mytime=1800, $repetition=0"
attr lambda 100
attr measurement "$net=abilene_cost, $rep=16, $priceratiovalue=10, $weights=0.333_0.333_0.334, $lambda=100, $a=1, $ctlg=1e5, $F=nrr, $ttl=1000, $D=lce, $xi=1, $R=lru, $csize=1e3, $pricebits=0, $window=60, $variance=0.05, $mytime=1800"
attr mytime 1800
attr net abilene_cost
attr network "networks.${net=geant_cost, abilene_cost}_network"
attr pricebits 0
attr priceratiovalue 10
attr processid 22871
attr rep 16
attr repetition 0
attr replication #0
attr resultdir results
attr runnumber 49
attr seedset 16
attr ttl 1000
attr variance 0.05
attr weights 0.333_0.333_0.334
attr window 60
attr xi 1

scalar . 	a 	1
scalar . 	csize 	1e3
scalar . 	ctlg 	1e5
scalar . 	lambda 	100
scalar . 	mytime 	1800
scalar . 	pricebits 	0
scalar . 	priceratiovalue 	10
scalar . 	rep 	16
scalar . 	ttl 	1000
scalar . 	variance 	0.05
scalar . 	window 	60
scalar . 	xi 	1
scalar abilene_cost_network.content_distribution 	repo-0 	11
scalar abilene_cost_network.content_distribution 	repo-1 	12
scalar abilene_cost_network.content_distribution 	repo-2 	13
scalar abilene_cost_network.content_distribution 	client-0 	5
scalar abilene_cost_network.content_distribution 	client-1 	0
scalar abilene_cost_network.content_distribution 	client-2 	9
scalar abilene_cost_network.content_distribution 	repo-0_card 	33302
scalar abilene_cost_network.content_distribution 	repo-1_card 	33208
scalar abilene_cost_network.content_distribution 	repo-2_card 	33490
scalar abilene_cost_network.statistics 	repo_popularity[0] 	0.38028263519115
scalar abilene_cost_network.statistics 	repo_popularity[1] 	0.2853641311191
scalar abilene_cost_network.statistics 	repo_popularity[2] 	0.33435323368975
scalar abilene_cost_network.statistics 	stabilization_time 	64.3
scalar abilene_cost_network.node[1].face$o[4].channel 	price[1] 	0
scalar abilene_cost_network.node[1].face$o[4].channel 	represented_price[1] 	0
scalar abilene_cost_network.node[7].face$o[4].channel 	price[7] 	0
scalar abilene_cost_network.node[7].face$o[4].channel 	represented_price[7] 	0
scalar abilene_cost_network.node[10].face$o[4].channel 	price[10] 	0
scalar abilene_cost_network.node[10].face$o[4].channel 	represented_price[10] 	0
scalar abilene_cost_network.node[11].face$o[1].channel 	price[11] 	0
scalar abilene_cost_network.node[11].face$o[1].channel 	represented_price[11] 	0
scalar abilene_cost_network.node[12].face$o[1].channel 	price[12] 	1
scalar abilene_cost_network.node[12].face$o[1].channel 	represented_price[12] 	1
scalar abilene_cost_network.node[13].face$o[1].channel 	price[13] 	10
scalar abilene_cost_network.node[13].face$o[1].channel 	represented_price[13] 	10
scalar abilene_cost_network.statistics 	p_hit 	0.12433213240833
scalar abilene_cost_network.statistics 	interests 	126588.92857143
scalar abilene_cost_network.statistics 	data 	88020.5
scalar abilene_cost_network.statistics 	hdistance 	2.8763094898683
scalar abilene_cost_network.statistics 	avg_time 	0.011113465143
scalar abilene_cost_network.statistics 	downloads 	539442
scalar abilene_cost_network.statistics 	total_cost 	1209803
scalar abilene_cost_network.statistics 	total_replicas 	100000
scalar abilene_cost_network.statistics 	inner_hit 	0.40847208782408
scalar abilene_cost_network.statistics 	interests_sent 	539952
scalar abilene_cost_network.node[0].core_layer 	interests[0] 	184055
scalar abilene_cost_network.node[0].core_layer 	data[0] 	128914
scalar abilene_cost_network.node[0].core_layer 	repo_int[0] 	319095
scalar abilene_cost_network.node[0].content_store 	p_hit[0] 	0.2986607264133
scalar abilene_cost_network.node[0].content_store 	hits[0] 	54970
scalar abilene_cost_network.node[0].content_store 	misses[0] 	129085
scalar abilene_cost_network.node[0].content_store 	decision_yes[0] 	128914
scalar abilene_cost_network.node[0].content_store 	decision_no[0] 	0
scalar abilene_cost_network.node[0].content_store 	decision_ratio[0] 	1
scalar abilene_cost_network.node[1].core_layer 	interests[1] 	195218
scalar abilene_cost_network.node[1].core_layer 	data[1] 	190875
scalar abilene_cost_network.node[1].content_store 	p_hit[1] 	0.022246923951685
scalar abilene_cost_network.node[1].content_store 	hits[1] 	4343
scalar abilene_cost_network.node[1].content_store 	misses[1] 	190875
scalar abilene_cost_network.node[1].content_store 	decision_yes[1] 	190792
scalar abilene_cost_network.node[1].content_store 	decision_no[1] 	0
scalar abilene_cost_network.node[1].content_store 	decision_ratio[1] 	1
scalar abilene_cost_network.node[2].core_layer 	interests[2] 	120649
scalar abilene_cost_network.node[2].core_layer 	data[2] 	116942
scalar abilene_cost_network.node[2].content_store 	p_hit[2] 	0.030725492958914
scalar abilene_cost_network.node[2].content_store 	hits[2] 	3707
scalar abilene_cost_network.node[2].content_store 	misses[2] 	116942
scalar abilene_cost_network.node[2].content_store 	decision_yes[2] 	116870
scalar abilene_cost_network.node[2].content_store 	decision_no[2] 	0
scalar abilene_cost_network.node[2].content_store 	decision_ratio[2] 	1
scalar abilene_cost_network.node[3].core_layer 	interests[3] 	111975
scalar abilene_cost_network.node[3].core_layer 	data[3] 	111150
scalar abilene_cost_network.node[3].content_store 	p_hit[3] 	0.0073587854431793
scalar abilene_cost_network.node[3].content_store 	hits[3] 	824
scalar abilene_cost_network.node[3].content_store 	misses[3] 	111151
scalar abilene_cost_network.node[3].content_store 	decision_yes[3] 	111138
scalar abilene_cost_network.node[3].content_store 	decision_no[3] 	0
scalar abilene_cost_network.node[3].content_store 	decision_ratio[3] 	1
scalar abilene_cost_network.node[4].core_layer 	interests[4] 	79108
scalar abilene_cost_network.node[4].core_layer 	data[4] 	75860
scalar abilene_cost_network.node[4].content_store 	p_hit[4] 	0.041045153461091
scalar abilene_cost_network.node[4].content_store 	hits[4] 	3247
scalar abilene_cost_network.node[4].content_store 	misses[4] 	75861
scalar abilene_cost_network.node[4].content_store 	decision_yes[4] 	75860
scalar abilene_cost_network.node[4].content_store 	decision_no[4] 	0
scalar abilene_cost_network.node[4].content_store 	decision_ratio[4] 	1
scalar abilene_cost_network.node[5].core_layer 	interests[5] 	179779
scalar abilene_cost_network.node[5].core_layer 	data[5] 	128579
scalar abilene_cost_network.node[5].content_store 	p_hit[5] 	0.28390968911831
scalar abilene_cost_network.node[5].content_store 	hits[5] 	51041
scalar abilene_cost_network.node[5].content_store 	misses[5] 	128738
scalar abilene_cost_network.node[5].content_store 	decision_yes[5] 	128579
scalar abilene_cost_network.node[5].content_store 	decision_no[5] 	0
scalar abilene_cost_network.node[5].content_store 	decision_ratio[5] 	1
scalar abilene_cost_network.node[6].core_layer 	interests[6] 	54040
scalar abilene_cost_network.node[6].core_layer 	data[6] 	41778
scalar abilene_cost_network.node[6].content_store 	p_hit[6] 	0.22688749074759
scalar abilene_cost_network.node[6].content_store 	hits[6] 	12261
scalar abilene_cost_network.node[6].content_store 	misses[6] 	41779
scalar abilene_cost_network.node[6].content_store 	decision_yes[6] 	41778
scalar abilene_cost_network.node[6].content_store 	decision_no[6] 	0
scalar abilene_cost_network.node[6].content_store 	decision_ratio[6] 	1
scalar abilene_cost_network.node[7].core_layer 	interests[7] 	113316
scalar abilene_cost_network.node[7].core_layer 	data[7] 	110080
scalar abilene_cost_network.node[7].content_store 	p_hit[7] 	0.028548483885771
scalar abilene_cost_network.node[7].content_store 	hits[7] 	3235
scalar abilene_cost_network.node[7].content_store 	misses[7] 	110081
scalar abilene_cost_network.node[7].content_store 	decision_yes[7] 	110058
scalar abilene_cost_network.node[7].content_store 	decision_no[7] 	0
scalar abilene_cost_network.node[7].content_store 	decision_ratio[7] 	1
scalar abilene_cost_network.node[8].core_layer 	interests[8] 	61416
scalar abilene_cost_network.node[8].core_layer 	data[8] 	42859
scalar abilene_cost_network.node[8].content_store 	p_hit[8] 	0.30213625113977
scalar abilene_cost_network.node[8].content_store 	hits[8] 	18556
scalar abilene_cost_network.node[8].content_store 	misses[8] 	42860
scalar abilene_cost_network.node[8].content_store 	decision_yes[8] 	42855
scalar abilene_cost_network.node[8].content_store 	decision_no[8] 	0
scalar abilene_cost_network.node[8].content_store 	decision_ratio[8] 	1
scalar abilene_cost_network.node[9].core_layer 	interests[9] 	191269
scalar abilene_cost_network.node[9].core_layer 	data[9] 	128016
scalar abilene_cost_network.node[9].content_store 	p_hit[9] 	0.32975547527304
scalar abilene_cost_network.node[9].content_store 	hits[9] 	63072
scalar abilene_cost_network.node[9].content_store 	misses[9] 	128197
scalar abilene_cost_network.node[9].content_store 	decision_yes[9] 	128010
scalar abilene_cost_network.node[9].content_store 	decision_no[9] 	0
scalar abilene_cost_network.node[9].content_store 	decision_ratio[9] 	1
scalar abilene_cost_network.node[10].core_layer 	interests[10] 	162325
scalar abilene_cost_network.node[10].core_layer 	data[10] 	157234
scalar abilene_cost_network.node[10].content_store 	p_hit[10] 	0.031363006314493
scalar abilene_cost_network.node[10].content_store 	hits[10] 	5091
scalar abilene_cost_network.node[10].content_store 	misses[10] 	157234
scalar abilene_cost_network.node[10].content_store 	decision_yes[10] 	157211
scalar abilene_cost_network.node[10].content_store 	decision_no[10] 	0
scalar abilene_cost_network.node[10].content_store 	decision_ratio[10] 	1
scalar abilene_cost_network.node[11].core_layer 	interests[11] 	108949
scalar abilene_cost_network.node[11].core_layer 	repo_load[11] 	108949
scalar abilene_cost_network.node[11].core_layer 	data[11] 	0
scalar abilene_cost_network.node[11].content_store 	p_hit[11] 	0
scalar abilene_cost_network.node[11].content_store 	hits[11] 	0
scalar abilene_cost_network.node[11].content_store 	misses[11] 	108949
scalar abilene_cost_network.node[11].content_store 	decision_yes[11] 	0
scalar abilene_cost_network.node[11].content_store 	decision_no[11] 	108949
scalar abilene_cost_network.node[11].content_store 	decision_ratio[11] 	0
scalar abilene_cost_network.node[12].core_layer 	interests[12] 	99073
scalar abilene_cost_network.node[12].core_layer 	repo_load[12] 	99073
scalar abilene_cost_network.node[12].core_layer 	data[12] 	0
scalar abilene_cost_network.node[12].content_store 	p_hit[12] 	0
scalar abilene_cost_network.node[12].content_store 	hits[12] 	0
scalar abilene_cost_network.node[12].content_store 	misses[12] 	99073
scalar abilene_cost_network.node[12].content_store 	decision_yes[12] 	0
scalar abilene_cost_network.node[12].content_store 	decision_no[12] 	99073
scalar abilene_cost_network.node[12].content_store 	decision_ratio[12] 	0
scalar abilene_cost_network.node[13].core_layer 	interests[13] 	111073
scalar abilene_cost_network.node[13].core_layer 	repo_load[13] 	111073
scalar abilene_cost_network.node[13].core_layer 	data[13] 	0
scalar abilene_cost_network.node[13].content_store 	p_hit[13] 	0
scalar abilene_cost_network.node[13].content_store 	hits[13] 	0
scalar abilene_cost_network.node[13].content_store 	misses[13] 	111073
scalar abilene_cost_network.node[13].content_store 	decision_yes[13] 	0
scalar abilene_cost_network.node[13].content_store 	decision_no[13] 	111073
scalar abilene_cost_network.node[13].content_store 	decision_ratio[13] 	0
scalar abilene_cost_network.client[0] 	hdistance[0] 	2.6257458225596
scalar abilene_cost_network.client[0] 	downloads[0] 	179835
scalar abilene_cost_network.client[0] 	avg_time[0] 	0.010660352053
scalar abilene_cost_network.client[0] 	interests_sent[0] 	180005
scalar abilene_cost_network.client[5] 	hdistance[5] 	3.6471588880957
scalar abilene_cost_network.client[5] 	downloads[5] 	179296
scalar abilene_cost_network.client[5] 	avg_time[5] 	0.013254955949
scalar abilene_cost_network.client[5] 	interests_sent[5] 	179455
scalar abilene_cost_network.client[9] 	hdistance[9] 	2.3560237589498
scalar abilene_cost_network.client[9] 	downloads[9] 	180311
scalar abilene_cost_network.client[9] 	avg_time[9] 	0.009425087428
scalar abilene_cost_network.client[9] 	interests_sent[9] 	180492
