version 2
run General-25-20140627-18:48:40-11390
attr D lce
attr F nrr
attr R lru
attr a 1
attr configname General
attr csize 1e3
attr ctlg 1e5
attr datetime 20140627-18:48:40
attr experiment General
attr inifile omnetpp.ini
attr iterationvars "$net=abilene_cost, $rep=11, $priceratiovalue=10, $weights=0.333_0.333_0.334, $lambda=100, $a=1, $ctlg=1e5, $F=nrr, $ttl=1000, $D=lce, $xi=1, $R=lru, $csize=1e3, $pricebits=0, $window=60, $variance=0.05, $mytime=1800"
attr iterationvars2 "$net=abilene_cost, $rep=11, $priceratiovalue=10, $weights=0.333_0.333_0.334, $lambda=100, $a=1, $ctlg=1e5, $F=nrr, $ttl=1000, $D=lce, $xi=1, $R=lru, $csize=1e3, $pricebits=0, $window=60, $variance=0.05, $mytime=1800, $repetition=0"
attr lambda 100
attr measurement "$net=abilene_cost, $rep=11, $priceratiovalue=10, $weights=0.333_0.333_0.334, $lambda=100, $a=1, $ctlg=1e5, $F=nrr, $ttl=1000, $D=lce, $xi=1, $R=lru, $csize=1e3, $pricebits=0, $window=60, $variance=0.05, $mytime=1800"
attr mytime 1800
attr net abilene_cost
attr network "networks.${net=geant_cost, abilene_cost}_network"
attr pricebits 0
attr priceratiovalue 10
attr processid 11390
attr rep 11
attr repetition 0
attr replication #0
attr resultdir results
attr runnumber 25
attr seedset 11
attr ttl 1000
attr variance 0.05
attr weights 0.333_0.333_0.334
attr window 60
attr xi 1

scalar . 	a 	1
scalar . 	csize 	1e3
scalar . 	ctlg 	1e5
scalar . 	lambda 	100
scalar . 	mytime 	1800
scalar . 	pricebits 	0
scalar . 	priceratiovalue 	10
scalar . 	rep 	11
scalar . 	ttl 	1000
scalar . 	variance 	0.05
scalar . 	window 	60
scalar . 	xi 	1
scalar abilene_cost_network.content_distribution 	repo-0 	11
scalar abilene_cost_network.content_distribution 	repo-1 	12
scalar abilene_cost_network.content_distribution 	repo-2 	13
scalar abilene_cost_network.content_distribution 	client-0 	5
scalar abilene_cost_network.content_distribution 	client-1 	0
scalar abilene_cost_network.content_distribution 	client-2 	9
scalar abilene_cost_network.content_distribution 	repo-0_card 	33093
scalar abilene_cost_network.content_distribution 	repo-1_card 	33554
scalar abilene_cost_network.content_distribution 	repo-2_card 	33353
scalar abilene_cost_network.statistics 	repo_popularity[0] 	0.39172976570124
scalar abilene_cost_network.statistics 	repo_popularity[1] 	0.31007949205523
scalar abilene_cost_network.statistics 	repo_popularity[2] 	0.29819074224352
scalar abilene_cost_network.statistics 	stabilization_time 	63.3
scalar abilene_cost_network.node[1].face$o[4].channel 	price[1] 	0
scalar abilene_cost_network.node[1].face$o[4].channel 	represented_price[1] 	0
scalar abilene_cost_network.node[7].face$o[4].channel 	price[7] 	0
scalar abilene_cost_network.node[7].face$o[4].channel 	represented_price[7] 	0
scalar abilene_cost_network.node[10].face$o[4].channel 	price[10] 	0
scalar abilene_cost_network.node[10].face$o[4].channel 	represented_price[10] 	0
scalar abilene_cost_network.node[11].face$o[1].channel 	price[11] 	0
scalar abilene_cost_network.node[11].face$o[1].channel 	represented_price[11] 	0
scalar abilene_cost_network.node[12].face$o[1].channel 	price[12] 	1
scalar abilene_cost_network.node[12].face$o[1].channel 	represented_price[12] 	1
scalar abilene_cost_network.node[13].face$o[1].channel 	price[13] 	10
scalar abilene_cost_network.node[13].face$o[1].channel 	represented_price[13] 	10
scalar abilene_cost_network.statistics 	p_hit 	0.12361001430004
scalar abilene_cost_network.statistics 	interests 	127172.42857143
scalar abilene_cost_network.statistics 	data 	88550.714285714
scalar abilene_cost_network.statistics 	hdistance 	2.8865761713666
scalar abilene_cost_network.statistics 	avg_time 	0.01117429468
scalar abilene_cost_network.statistics 	downloads 	540162
scalar abilene_cost_network.statistics 	total_cost 	1213702
scalar abilene_cost_network.statistics 	total_replicas 	100000
scalar abilene_cost_network.statistics 	inner_hit 	0.40743147426143
scalar abilene_cost_network.statistics 	interests_sent 	540704
scalar abilene_cost_network.node[0].core_layer 	interests[0] 	184309
scalar abilene_cost_network.node[0].core_layer 	data[0] 	129456
scalar abilene_cost_network.node[0].core_layer 	repo_int[0] 	320083
scalar abilene_cost_network.node[0].content_store 	p_hit[0] 	0.29664856301103
scalar abilene_cost_network.node[0].content_store 	hits[0] 	54675
scalar abilene_cost_network.node[0].content_store 	misses[0] 	129634
scalar abilene_cost_network.node[0].content_store 	decision_yes[0] 	129456
scalar abilene_cost_network.node[0].content_store 	decision_no[0] 	0
scalar abilene_cost_network.node[0].content_store 	decision_ratio[0] 	1
scalar abilene_cost_network.node[1].core_layer 	interests[1] 	196311
scalar abilene_cost_network.node[1].core_layer 	data[1] 	192036
scalar abilene_cost_network.node[1].content_store 	p_hit[1] 	0.021776670690894
scalar abilene_cost_network.node[1].content_store 	hits[1] 	4275
scalar abilene_cost_network.node[1].content_store 	misses[1] 	192036
scalar abilene_cost_network.node[1].content_store 	decision_yes[1] 	191979
scalar abilene_cost_network.node[1].content_store 	decision_no[1] 	0
scalar abilene_cost_network.node[1].content_store 	decision_ratio[1] 	1
scalar abilene_cost_network.node[2].core_layer 	interests[2] 	121758
scalar abilene_cost_network.node[2].core_layer 	data[2] 	118194
scalar abilene_cost_network.node[2].content_store 	p_hit[2] 	0.029279390265937
scalar abilene_cost_network.node[2].content_store 	hits[2] 	3565
scalar abilene_cost_network.node[2].content_store 	misses[2] 	118193
scalar abilene_cost_network.node[2].content_store 	decision_yes[2] 	118138
scalar abilene_cost_network.node[2].content_store 	decision_no[2] 	0
scalar abilene_cost_network.node[2].content_store 	decision_ratio[2] 	1
scalar abilene_cost_network.node[3].core_layer 	interests[3] 	113202
scalar abilene_cost_network.node[3].core_layer 	data[3] 	112257
scalar abilene_cost_network.node[3].content_store 	p_hit[3] 	0.0083479090475433
scalar abilene_cost_network.node[3].content_store 	hits[3] 	945
scalar abilene_cost_network.node[3].content_store 	misses[3] 	112257
scalar abilene_cost_network.node[3].content_store 	decision_yes[3] 	112236
scalar abilene_cost_network.node[3].content_store 	decision_no[3] 	0
scalar abilene_cost_network.node[3].content_store 	decision_ratio[3] 	1
scalar abilene_cost_network.node[4].core_layer 	interests[4] 	79173
scalar abilene_cost_network.node[4].core_layer 	data[4] 	76178
scalar abilene_cost_network.node[4].content_store 	p_hit[4] 	0.037841183231657
scalar abilene_cost_network.node[4].content_store 	hits[4] 	2996
scalar abilene_cost_network.node[4].content_store 	misses[4] 	76177
scalar abilene_cost_network.node[4].content_store 	decision_yes[4] 	76178
scalar abilene_cost_network.node[4].content_store 	decision_no[4] 	0
scalar abilene_cost_network.node[4].content_store 	decision_ratio[4] 	1
scalar abilene_cost_network.node[5].core_layer 	interests[5] 	180783
scalar abilene_cost_network.node[5].core_layer 	data[5] 	129509
scalar abilene_cost_network.node[5].content_store 	p_hit[5] 	0.28264272636255
scalar abilene_cost_network.node[5].content_store 	hits[5] 	51097
scalar abilene_cost_network.node[5].content_store 	misses[5] 	129686
scalar abilene_cost_network.node[5].content_store 	decision_yes[5] 	129509
scalar abilene_cost_network.node[5].content_store 	decision_no[5] 	0
scalar abilene_cost_network.node[5].content_store 	decision_ratio[5] 	1
scalar abilene_cost_network.node[6].core_layer 	interests[6] 	55347
scalar abilene_cost_network.node[6].core_layer 	data[6] 	42516
scalar abilene_cost_network.node[6].content_store 	p_hit[6] 	0.23181021554917
scalar abilene_cost_network.node[6].content_store 	hits[6] 	12830
scalar abilene_cost_network.node[6].content_store 	misses[6] 	42517
scalar abilene_cost_network.node[6].content_store 	decision_yes[6] 	42516
scalar abilene_cost_network.node[6].content_store 	decision_no[6] 	0
scalar abilene_cost_network.node[6].content_store 	decision_ratio[6] 	1
scalar abilene_cost_network.node[7].core_layer 	interests[7] 	115566
scalar abilene_cost_network.node[7].core_layer 	data[7] 	111959
scalar abilene_cost_network.node[7].content_store 	p_hit[7] 	0.031194295900178
scalar abilene_cost_network.node[7].content_store 	hits[7] 	3605
scalar abilene_cost_network.node[7].content_store 	misses[7] 	111961
scalar abilene_cost_network.node[7].content_store 	decision_yes[7] 	111921
scalar abilene_cost_network.node[7].content_store 	decision_no[7] 	0
scalar abilene_cost_network.node[7].content_store 	decision_ratio[7] 	1
scalar abilene_cost_network.node[8].core_layer 	interests[8] 	62468
scalar abilene_cost_network.node[8].core_layer 	data[8] 	43297
scalar abilene_cost_network.node[8].content_store 	p_hit[8] 	0.30690913747839
scalar abilene_cost_network.node[8].content_store 	hits[8] 	19172
scalar abilene_cost_network.node[8].content_store 	misses[8] 	43296
scalar abilene_cost_network.node[8].content_store 	decision_yes[8] 	43292
scalar abilene_cost_network.node[8].content_store 	decision_no[8] 	0
scalar abilene_cost_network.node[8].content_store 	decision_ratio[8] 	1
scalar abilene_cost_network.node[9].core_layer 	interests[9] 	190648
scalar abilene_cost_network.node[9].core_layer 	data[9] 	128176
scalar abilene_cost_network.node[9].content_store 	p_hit[9] 	0.32669107465067
scalar abilene_cost_network.node[9].content_store 	hits[9] 	62283
scalar abilene_cost_network.node[9].content_store 	misses[9] 	128365
scalar abilene_cost_network.node[9].content_store 	decision_yes[9] 	128174
scalar abilene_cost_network.node[9].content_store 	decision_no[9] 	0
scalar abilene_cost_network.node[9].content_store 	decision_ratio[9] 	1
scalar abilene_cost_network.node[10].core_layer 	interests[10] 	160766
scalar abilene_cost_network.node[10].core_layer 	data[10] 	156132
scalar abilene_cost_network.node[10].content_store 	p_hit[10] 	0.028824502693356
scalar abilene_cost_network.node[10].content_store 	hits[10] 	4634
scalar abilene_cost_network.node[10].content_store 	misses[10] 	156132
scalar abilene_cost_network.node[10].content_store 	decision_yes[10] 	156107
scalar abilene_cost_network.node[10].content_store 	decision_no[10] 	0
scalar abilene_cost_network.node[10].content_store 	decision_ratio[10] 	1
scalar abilene_cost_network.node[11].core_layer 	interests[11] 	108135
scalar abilene_cost_network.node[11].core_layer 	repo_load[11] 	108135
scalar abilene_cost_network.node[11].core_layer 	data[11] 	0
scalar abilene_cost_network.node[11].content_store 	p_hit[11] 	0
scalar abilene_cost_network.node[11].content_store 	hits[11] 	0
scalar abilene_cost_network.node[11].content_store 	misses[11] 	108135
scalar abilene_cost_network.node[11].content_store 	decision_yes[11] 	0
scalar abilene_cost_network.node[11].content_store 	decision_no[11] 	108135
scalar abilene_cost_network.node[11].content_store 	decision_ratio[11] 	0
scalar abilene_cost_network.node[12].core_layer 	interests[12] 	100642
scalar abilene_cost_network.node[12].core_layer 	repo_load[12] 	100642
scalar abilene_cost_network.node[12].core_layer 	data[12] 	0
scalar abilene_cost_network.node[12].content_store 	p_hit[12] 	0
scalar abilene_cost_network.node[12].content_store 	hits[12] 	0
scalar abilene_cost_network.node[12].content_store 	misses[12] 	100642
scalar abilene_cost_network.node[12].content_store 	decision_yes[12] 	0
scalar abilene_cost_network.node[12].content_store 	decision_no[12] 	100642
scalar abilene_cost_network.node[12].content_store 	decision_ratio[12] 	0
scalar abilene_cost_network.node[13].core_layer 	interests[13] 	111306
scalar abilene_cost_network.node[13].core_layer 	repo_load[13] 	111306
scalar abilene_cost_network.node[13].core_layer 	data[13] 	0
scalar abilene_cost_network.node[13].content_store 	p_hit[13] 	0
scalar abilene_cost_network.node[13].content_store 	hits[13] 	0
scalar abilene_cost_network.node[13].content_store 	misses[13] 	111306
scalar abilene_cost_network.node[13].content_store 	decision_yes[13] 	0
scalar abilene_cost_network.node[13].content_store 	decision_no[13] 	111306
scalar abilene_cost_network.node[13].content_store 	decision_ratio[13] 	0
scalar abilene_cost_network.client[0] 	hdistance[0] 	2.6460864015982
scalar abilene_cost_network.client[0] 	downloads[0] 	180205
scalar abilene_cost_network.client[0] 	avg_time[0] 	0.010788187919
scalar abilene_cost_network.client[0] 	interests_sent[0] 	180383
scalar abilene_cost_network.client[5] 	hdistance[5] 	3.6478326755591
scalar abilene_cost_network.client[5] 	downloads[5] 	180153
scalar abilene_cost_network.client[5] 	avg_time[5] 	0.013211950885
scalar abilene_cost_network.client[5] 	interests_sent[5] 	180330
scalar abilene_cost_network.client[9] 	hdistance[9] 	2.3658094369424
scalar abilene_cost_network.client[9] 	downloads[9] 	179804
scalar abilene_cost_network.client[9] 	avg_time[9] 	0.009522745238
scalar abilene_cost_network.client[9] 	interests_sent[9] 	179991
