version 2
run General-57-20140627-19:53:16-22890
attr D lce
attr F nrr
attr R lru
attr a 1
attr configname General
attr csize 1e3
attr ctlg 1e5
attr datetime 20140627-19:53:16
attr experiment General
attr inifile omnetpp.ini
attr iterationvars "$net=abilene_cost, $rep=17, $priceratiovalue=10, $weights=0.333_0.333_0.334, $lambda=100, $a=1, $ctlg=1e5, $F=nrr, $ttl=1000, $D=lce, $xi=1, $R=lru, $csize=1e3, $pricebits=0, $window=60, $variance=0.05, $mytime=1800"
attr iterationvars2 "$net=abilene_cost, $rep=17, $priceratiovalue=10, $weights=0.333_0.333_0.334, $lambda=100, $a=1, $ctlg=1e5, $F=nrr, $ttl=1000, $D=lce, $xi=1, $R=lru, $csize=1e3, $pricebits=0, $window=60, $variance=0.05, $mytime=1800, $repetition=0"
attr lambda 100
attr measurement "$net=abilene_cost, $rep=17, $priceratiovalue=10, $weights=0.333_0.333_0.334, $lambda=100, $a=1, $ctlg=1e5, $F=nrr, $ttl=1000, $D=lce, $xi=1, $R=lru, $csize=1e3, $pricebits=0, $window=60, $variance=0.05, $mytime=1800"
attr mytime 1800
attr net abilene_cost
attr network "networks.${net=geant_cost, abilene_cost}_network"
attr pricebits 0
attr priceratiovalue 10
attr processid 22890
attr rep 17
attr repetition 0
attr replication #0
attr resultdir results
attr runnumber 57
attr seedset 17
attr ttl 1000
attr variance 0.05
attr weights 0.333_0.333_0.334
attr window 60
attr xi 1

scalar . 	a 	1
scalar . 	csize 	1e3
scalar . 	ctlg 	1e5
scalar . 	lambda 	100
scalar . 	mytime 	1800
scalar . 	pricebits 	0
scalar . 	priceratiovalue 	10
scalar . 	rep 	17
scalar . 	ttl 	1000
scalar . 	variance 	0.05
scalar . 	window 	60
scalar . 	xi 	1
scalar abilene_cost_network.content_distribution 	repo-0 	11
scalar abilene_cost_network.content_distribution 	repo-1 	12
scalar abilene_cost_network.content_distribution 	repo-2 	13
scalar abilene_cost_network.content_distribution 	client-0 	5
scalar abilene_cost_network.content_distribution 	client-1 	0
scalar abilene_cost_network.content_distribution 	client-2 	9
scalar abilene_cost_network.content_distribution 	repo-0_card 	33432
scalar abilene_cost_network.content_distribution 	repo-1_card 	33238
scalar abilene_cost_network.content_distribution 	repo-2_card 	33330
scalar abilene_cost_network.statistics 	repo_popularity[0] 	0.29357061690373
scalar abilene_cost_network.statistics 	repo_popularity[1] 	0.31455664157995
scalar abilene_cost_network.statistics 	repo_popularity[2] 	0.39187274151631
scalar abilene_cost_network.statistics 	stabilization_time 	63.6
scalar abilene_cost_network.node[1].face$o[4].channel 	price[1] 	0
scalar abilene_cost_network.node[1].face$o[4].channel 	represented_price[1] 	0
scalar abilene_cost_network.node[7].face$o[4].channel 	price[7] 	0
scalar abilene_cost_network.node[7].face$o[4].channel 	represented_price[7] 	0
scalar abilene_cost_network.node[10].face$o[4].channel 	price[10] 	0
scalar abilene_cost_network.node[10].face$o[4].channel 	represented_price[10] 	0
scalar abilene_cost_network.node[11].face$o[1].channel 	price[11] 	0
scalar abilene_cost_network.node[11].face$o[1].channel 	represented_price[11] 	0
scalar abilene_cost_network.node[12].face$o[1].channel 	price[12] 	1
scalar abilene_cost_network.node[12].face$o[1].channel 	represented_price[12] 	1
scalar abilene_cost_network.node[13].face$o[1].channel 	price[13] 	10
scalar abilene_cost_network.node[13].face$o[1].channel 	represented_price[13] 	10
scalar abilene_cost_network.statistics 	p_hit 	0.12427880183296
scalar abilene_cost_network.statistics 	interests 	127070.28571429
scalar abilene_cost_network.statistics 	data 	88516.785714286
scalar abilene_cost_network.statistics 	hdistance 	2.8873736985245
scalar abilene_cost_network.statistics 	avg_time 	0.011259461668
scalar abilene_cost_network.statistics 	downloads 	539219
scalar abilene_cost_network.statistics 	total_cost 	1212584
scalar abilene_cost_network.statistics 	total_replicas 	100000
scalar abilene_cost_network.statistics 	inner_hit 	0.41003562559925
scalar abilene_cost_network.statistics 	interests_sent 	539754
scalar abilene_cost_network.node[0].core_layer 	interests[0] 	184841
scalar abilene_cost_network.node[0].core_layer 	data[0] 	129595
scalar abilene_cost_network.node[0].core_layer 	repo_int[0] 	318120
scalar abilene_cost_network.node[0].content_store 	p_hit[0] 	0.29789927559362
scalar abilene_cost_network.node[0].content_store 	hits[0] 	55064
scalar abilene_cost_network.node[0].content_store 	misses[0] 	129777
scalar abilene_cost_network.node[0].content_store 	decision_yes[0] 	129595
scalar abilene_cost_network.node[0].content_store 	decision_no[0] 	0
scalar abilene_cost_network.node[0].content_store 	decision_ratio[0] 	1
scalar abilene_cost_network.node[1].core_layer 	interests[1] 	195307
scalar abilene_cost_network.node[1].core_layer 	data[1] 	191240
scalar abilene_cost_network.node[1].content_store 	p_hit[1] 	0.020828746537502
scalar abilene_cost_network.node[1].content_store 	hits[1] 	4068
scalar abilene_cost_network.node[1].content_store 	misses[1] 	191239
scalar abilene_cost_network.node[1].content_store 	decision_yes[1] 	191180
scalar abilene_cost_network.node[1].content_store 	decision_no[1] 	0
scalar abilene_cost_network.node[1].content_store 	decision_ratio[1] 	1
scalar abilene_cost_network.node[2].core_layer 	interests[2] 	121618
scalar abilene_cost_network.node[2].core_layer 	data[2] 	117999
scalar abilene_cost_network.node[2].content_store 	p_hit[2] 	0.029748885855712
scalar abilene_cost_network.node[2].content_store 	hits[2] 	3618
scalar abilene_cost_network.node[2].content_store 	misses[2] 	118000
scalar abilene_cost_network.node[2].content_store 	decision_yes[2] 	117948
scalar abilene_cost_network.node[2].content_store 	decision_no[2] 	0
scalar abilene_cost_network.node[2].content_store 	decision_ratio[2] 	1
scalar abilene_cost_network.node[3].core_layer 	interests[3] 	113366
scalar abilene_cost_network.node[3].core_layer 	data[3] 	112253
scalar abilene_cost_network.node[3].content_store 	p_hit[3] 	0.009826579397703
scalar abilene_cost_network.node[3].content_store 	hits[3] 	1114
scalar abilene_cost_network.node[3].content_store 	misses[3] 	112252
scalar abilene_cost_network.node[3].content_store 	decision_yes[3] 	112235
scalar abilene_cost_network.node[3].content_store 	decision_no[3] 	0
scalar abilene_cost_network.node[3].content_store 	decision_ratio[3] 	1
scalar abilene_cost_network.node[4].core_layer 	interests[4] 	76520
scalar abilene_cost_network.node[4].core_layer 	data[4] 	73062
scalar abilene_cost_network.node[4].content_store 	p_hit[4] 	0.045203868269733
scalar abilene_cost_network.node[4].content_store 	hits[4] 	3459
scalar abilene_cost_network.node[4].content_store 	misses[4] 	73061
scalar abilene_cost_network.node[4].content_store 	decision_yes[4] 	73062
scalar abilene_cost_network.node[4].content_store 	decision_no[4] 	0
scalar abilene_cost_network.node[4].content_store 	decision_ratio[4] 	1
scalar abilene_cost_network.node[5].core_layer 	interests[5] 	180178
scalar abilene_cost_network.node[5].core_layer 	data[5] 	128699
scalar abilene_cost_network.node[5].content_store 	p_hit[5] 	0.28469624482456
scalar abilene_cost_network.node[5].content_store 	hits[5] 	51296
scalar abilene_cost_network.node[5].content_store 	misses[5] 	128882
scalar abilene_cost_network.node[5].content_store 	decision_yes[5] 	128699
scalar abilene_cost_network.node[5].content_store 	decision_no[5] 	0
scalar abilene_cost_network.node[5].content_store 	decision_ratio[5] 	1
scalar abilene_cost_network.node[6].core_layer 	interests[6] 	58023
scalar abilene_cost_network.node[6].core_layer 	data[6] 	44915
scalar abilene_cost_network.node[6].content_store 	p_hit[6] 	0.2259104148355
scalar abilene_cost_network.node[6].content_store 	hits[6] 	13108
scalar abilene_cost_network.node[6].content_store 	misses[6] 	44915
scalar abilene_cost_network.node[6].content_store 	decision_yes[6] 	44913
scalar abilene_cost_network.node[6].content_store 	decision_no[6] 	0
scalar abilene_cost_network.node[6].content_store 	decision_ratio[6] 	1
scalar abilene_cost_network.node[7].core_layer 	interests[7] 	124037
scalar abilene_cost_network.node[7].core_layer 	data[7] 	119852
scalar abilene_cost_network.node[7].content_store 	p_hit[7] 	0.033699621887018
scalar abilene_cost_network.node[7].content_store 	hits[7] 	4180
scalar abilene_cost_network.node[7].content_store 	misses[7] 	119857
scalar abilene_cost_network.node[7].content_store 	decision_yes[7] 	119803
scalar abilene_cost_network.node[7].content_store 	decision_no[7] 	0
scalar abilene_cost_network.node[7].content_store 	decision_ratio[7] 	1
scalar abilene_cost_network.node[8].core_layer 	interests[8] 	64945
scalar abilene_cost_network.node[8].core_layer 	data[8] 	46208
scalar abilene_cost_network.node[8].content_store 	p_hit[8] 	0.28850565863423
scalar abilene_cost_network.node[8].content_store 	hits[8] 	18737
scalar abilene_cost_network.node[8].content_store 	misses[8] 	46208
scalar abilene_cost_network.node[8].content_store 	decision_yes[8] 	46198
scalar abilene_cost_network.node[8].content_store 	decision_no[8] 	0
scalar abilene_cost_network.node[8].content_store 	decision_ratio[8] 	1
scalar abilene_cost_network.node[9].core_layer 	interests[9] 	189706
scalar abilene_cost_network.node[9].core_layer 	data[9] 	127640
scalar abilene_cost_network.node[9].content_store 	p_hit[9] 	0.32627328603207
scalar abilene_cost_network.node[9].content_store 	hits[9] 	61896
scalar abilene_cost_network.node[9].content_store 	misses[9] 	127810
scalar abilene_cost_network.node[9].content_store 	decision_yes[9] 	127634
scalar abilene_cost_network.node[9].content_store 	decision_no[9] 	0
scalar abilene_cost_network.node[9].content_store 	decision_ratio[9] 	1
scalar abilene_cost_network.node[10].core_layer 	interests[10] 	152323
scalar abilene_cost_network.node[10].core_layer 	data[10] 	147772
scalar abilene_cost_network.node[10].content_store 	p_hit[10] 	0.029870735213986
scalar abilene_cost_network.node[10].content_store 	hits[10] 	4550
scalar abilene_cost_network.node[10].content_store 	misses[10] 	147773
scalar abilene_cost_network.node[10].content_store 	decision_yes[10] 	147748
scalar abilene_cost_network.node[10].content_store 	decision_no[10] 	0
scalar abilene_cost_network.node[10].content_store 	decision_ratio[10] 	1
scalar abilene_cost_network.node[11].core_layer 	interests[11] 	99658
scalar abilene_cost_network.node[11].core_layer 	repo_load[11] 	99658
scalar abilene_cost_network.node[11].core_layer 	data[11] 	0
scalar abilene_cost_network.node[11].content_store 	p_hit[11] 	0
scalar abilene_cost_network.node[11].content_store 	hits[11] 	0
scalar abilene_cost_network.node[11].content_store 	misses[11] 	99658
scalar abilene_cost_network.node[11].content_store 	decision_yes[11] 	0
scalar abilene_cost_network.node[11].content_store 	decision_no[11] 	99658
scalar abilene_cost_network.node[11].content_store 	decision_ratio[11] 	0
scalar abilene_cost_network.node[12].core_layer 	interests[12] 	108004
scalar abilene_cost_network.node[12].core_layer 	repo_load[12] 	108004
scalar abilene_cost_network.node[12].core_layer 	data[12] 	0
scalar abilene_cost_network.node[12].content_store 	p_hit[12] 	0
scalar abilene_cost_network.node[12].content_store 	hits[12] 	0
scalar abilene_cost_network.node[12].content_store 	misses[12] 	108004
scalar abilene_cost_network.node[12].content_store 	decision_yes[12] 	0
scalar abilene_cost_network.node[12].content_store 	decision_no[12] 	108004
scalar abilene_cost_network.node[12].content_store 	decision_ratio[12] 	0
scalar abilene_cost_network.node[13].core_layer 	interests[13] 	110458
scalar abilene_cost_network.node[13].core_layer 	repo_load[13] 	110458
scalar abilene_cost_network.node[13].core_layer 	data[13] 	0
scalar abilene_cost_network.node[13].content_store 	p_hit[13] 	0
scalar abilene_cost_network.node[13].content_store 	hits[13] 	0
scalar abilene_cost_network.node[13].content_store 	misses[13] 	110458
scalar abilene_cost_network.node[13].content_store 	decision_yes[13] 	0
scalar abilene_cost_network.node[13].content_store 	decision_no[13] 	110458
scalar abilene_cost_network.node[13].content_store 	decision_ratio[13] 	0
scalar abilene_cost_network.client[0] 	hdistance[0] 	2.6915786503489
scalar abilene_cost_network.client[0] 	downloads[0] 	180743
scalar abilene_cost_network.client[0] 	avg_time[0] 	0.011086312167
scalar abilene_cost_network.client[0] 	interests_sent[0] 	180925
scalar abilene_cost_network.client[5] 	hdistance[5] 	3.5867208219117
scalar abilene_cost_network.client[5] 	downloads[5] 	179484
scalar abilene_cost_network.client[5] 	avg_time[5] 	0.012820255166
scalar abilene_cost_network.client[5] 	interests_sent[5] 	179667
scalar abilene_cost_network.client[9] 	hdistance[9] 	2.3838216233128
scalar abilene_cost_network.client[9] 	downloads[9] 	178992
scalar abilene_cost_network.client[9] 	avg_time[9] 	0.009871817671
scalar abilene_cost_network.client[9] 	interests_sent[9] 	179162
