version 2
run General-33-20140630-13:22:09-25908
>>>>>>> e1705686414f379fcb9d06a9e50f5d7fe13c2c97
attr D lce
attr F nrr
attr R lru
attr a 1
attr configname General
attr csize 1e3
attr ctlg 1e5
attr datetime 20140630-13:22:09
>>>>>>> e1705686414f379fcb9d06a9e50f5d7fe13c2c97
attr experiment General
attr inifile omnetpp.ini
attr iterationvars "$net=abilene_cost, $rep=12, $priceratiovalue=10, $weights=0.333_0.333_0.334, $lambda=100, $a=1, $ctlg=1e5, $F=nrr, $ttl=1000, $D=lce, $xi=1, $R=lru, $csize=1e3, $pricebits=0, $window=60, $variance=0.05, $mytime=1800"
attr iterationvars2 "$net=abilene_cost, $rep=12, $priceratiovalue=10, $weights=0.333_0.333_0.334, $lambda=100, $a=1, $ctlg=1e5, $F=nrr, $ttl=1000, $D=lce, $xi=1, $R=lru, $csize=1e3, $pricebits=0, $window=60, $variance=0.05, $mytime=1800, $repetition=0"
attr lambda 100
attr measurement "$net=abilene_cost, $rep=12, $priceratiovalue=10, $weights=0.333_0.333_0.334, $lambda=100, $a=1, $ctlg=1e5, $F=nrr, $ttl=1000, $D=lce, $xi=1, $R=lru, $csize=1e3, $pricebits=0, $window=60, $variance=0.05, $mytime=1800"
attr mytime 1800
attr net abilene_cost
attr network "networks.${net=geant_cost, abilene_cost}_network"
attr pricebits 0
attr priceratiovalue 10
attr processid 25908
>>>>>>> e1705686414f379fcb9d06a9e50f5d7fe13c2c97
attr rep 12
attr repetition 0
attr replication #0
attr resultdir results
attr runnumber 33
attr seedset 12
attr ttl 1000
attr variance 0.05
attr weights 0.333_0.333_0.334
attr window 60
attr xi 1

scalar . 	a 	1
scalar . 	csize 	1e3
scalar . 	ctlg 	1e5
scalar . 	lambda 	100
scalar . 	mytime 	1800
scalar . 	pricebits 	0
scalar . 	priceratiovalue 	10
scalar . 	rep 	12
scalar . 	ttl 	1000
scalar . 	variance 	0.05
scalar . 	window 	60
scalar . 	xi 	1
scalar abilene_cost_network.content_distribution 	repo-0 	11
scalar abilene_cost_network.content_distribution 	repo-1 	12
scalar abilene_cost_network.content_distribution 	repo-2 	13
scalar abilene_cost_network.content_distribution 	client-0 	5
scalar abilene_cost_network.content_distribution 	client-1 	0
scalar abilene_cost_network.content_distribution 	client-2 	9
scalar abilene_cost_network.content_distribution 	repo-0_card 	33376
scalar abilene_cost_network.content_distribution 	repo-1_card 	33439
scalar abilene_cost_network.content_distribution 	repo-2_card 	33185
scalar abilene_cost_network.statistics 	repo_popularity[0] 	0.3146103286495
scalar abilene_cost_network.statistics 	repo_popularity[1] 	0.33182472258399
scalar abilene_cost_network.statistics 	repo_popularity[2] 	0.35356494876651
scalar abilene_cost_network.statistics 	stabilization_time 	63.2
scalar abilene_cost_network.node[1].face$o[4].channel 	price[1] 	0
scalar abilene_cost_network.node[1].face$o[4].channel 	represented_price[1] 	0
scalar abilene_cost_network.node[7].face$o[4].channel 	price[7] 	0
scalar abilene_cost_network.node[7].face$o[4].channel 	represented_price[7] 	0
scalar abilene_cost_network.node[10].face$o[4].channel 	price[10] 	0
scalar abilene_cost_network.node[10].face$o[4].channel 	represented_price[10] 	0
scalar abilene_cost_network.node[11].face$o[1].channel 	price[11] 	0
scalar abilene_cost_network.node[11].face$o[1].channel 	represented_price[11] 	0
scalar abilene_cost_network.node[12].face$o[1].channel 	price[12] 	1
scalar abilene_cost_network.node[12].face$o[1].channel 	represented_price[12] 	1
scalar abilene_cost_network.node[13].face$o[1].channel 	price[13] 	10
scalar abilene_cost_network.node[13].face$o[1].channel 	represented_price[13] 	10
scalar abilene_cost_network.statistics 	p_hit 	0.12391402772193
scalar abilene_cost_network.statistics 	interests 	127001.07142857
scalar abilene_cost_network.statistics 	data 	88445.857142857
scalar abilene_cost_network.statistics 	hdistance 	2.8873555434735
scalar abilene_cost_network.statistics 	avg_time 	0.011214039327
scalar abilene_cost_network.statistics 	downloads 	539272
scalar abilene_cost_network.statistics 	total_cost 	1172728
scalar abilene_cost_network.statistics 	total_replicas 	100000
scalar abilene_cost_network.statistics 	inner_hit 	0.40856005874586
scalar abilene_cost_network.statistics 	interests_sent 	539762
scalar abilene_cost_network.node[0].core_layer 	interests[0] 	183284
scalar abilene_cost_network.node[0].core_layer 	data[0] 	128353
scalar abilene_cost_network.node[0].core_layer 	repo_int[0] 	318947
scalar abilene_cost_network.node[0].content_store 	p_hit[0] 	0.29894589816896
scalar abilene_cost_network.node[0].content_store 	hits[0] 	54792
scalar abilene_cost_network.node[0].content_store 	misses[0] 	128492
scalar abilene_cost_network.node[0].content_store 	decision_yes[0] 	128353
scalar abilene_cost_network.node[0].content_store 	decision_no[0] 	0
scalar abilene_cost_network.node[0].content_store 	decision_ratio[0] 	1
scalar abilene_cost_network.node[1].core_layer 	interests[1] 	192432
scalar abilene_cost_network.node[1].core_layer 	data[1] 	188436
scalar abilene_cost_network.node[1].content_store 	p_hit[1] 	0.020755383719963
scalar abilene_cost_network.node[1].content_store 	hits[1] 	3994
scalar abilene_cost_network.node[1].content_store 	misses[1] 	188438
scalar abilene_cost_network.node[1].content_store 	decision_yes[1] 	188367
scalar abilene_cost_network.node[1].content_store 	decision_no[1] 	0
scalar abilene_cost_network.node[1].content_store 	decision_ratio[1] 	1
scalar abilene_cost_network.node[2].core_layer 	interests[2] 	120914
scalar abilene_cost_network.node[2].core_layer 	data[2] 	117400
scalar abilene_cost_network.node[2].content_store 	p_hit[2] 	0.02903716691202
scalar abilene_cost_network.node[2].content_store 	hits[2] 	3511
scalar abilene_cost_network.node[2].content_store 	misses[2] 	117403
scalar abilene_cost_network.node[2].content_store 	decision_yes[2] 	117349
scalar abilene_cost_network.node[2].content_store 	decision_no[2] 	0
scalar abilene_cost_network.node[2].content_store 	decision_ratio[2] 	1
scalar abilene_cost_network.node[3].core_layer 	interests[3] 	112703
scalar abilene_cost_network.node[3].core_layer 	data[3] 	111691
scalar abilene_cost_network.node[3].content_store 	p_hit[3] 	0.0089704799339858
scalar abilene_cost_network.node[3].content_store 	hits[3] 	1011
scalar abilene_cost_network.node[3].content_store 	misses[3] 	111692
scalar abilene_cost_network.node[3].content_store 	decision_yes[3] 	111676
scalar abilene_cost_network.node[3].content_store 	decision_no[3] 	0
scalar abilene_cost_network.node[3].content_store 	decision_ratio[3] 	1
scalar abilene_cost_network.node[4].core_layer 	interests[4] 	77480
scalar abilene_cost_network.node[4].core_layer 	data[4] 	74158
scalar abilene_cost_network.node[4].content_store 	p_hit[4] 	0.042862674238513
scalar abilene_cost_network.node[4].content_store 	hits[4] 	3321
scalar abilene_cost_network.node[4].content_store 	misses[4] 	74159
scalar abilene_cost_network.node[4].content_store 	decision_yes[4] 	74158
scalar abilene_cost_network.node[4].content_store 	decision_no[4] 	0
scalar abilene_cost_network.node[4].content_store 	decision_ratio[4] 	1
scalar abilene_cost_network.node[5].core_layer 	interests[5] 	180283
scalar abilene_cost_network.node[5].core_layer 	data[5] 	129067
scalar abilene_cost_network.node[5].content_store 	p_hit[5] 	0.28311044302569
scalar abilene_cost_network.node[5].content_store 	hits[5] 	51040
scalar abilene_cost_network.node[5].content_store 	misses[5] 	129243
scalar abilene_cost_network.node[5].content_store 	decision_yes[5] 	129067
scalar abilene_cost_network.node[5].content_store 	decision_no[5] 	0
scalar abilene_cost_network.node[5].content_store 	decision_ratio[5] 	1
scalar abilene_cost_network.node[6].core_layer 	interests[6] 	57038
scalar abilene_cost_network.node[6].core_layer 	data[6] 	43969
scalar abilene_cost_network.node[6].content_store 	p_hit[6] 	0.22912794978786
scalar abilene_cost_network.node[6].content_store 	hits[6] 	13069
scalar abilene_cost_network.node[6].content_store 	misses[6] 	43969
scalar abilene_cost_network.node[6].content_store 	decision_yes[6] 	43968
scalar abilene_cost_network.node[6].content_store 	decision_no[6] 	0
scalar abilene_cost_network.node[6].content_store 	decision_ratio[6] 	1
scalar abilene_cost_network.node[7].core_layer 	interests[7] 	120782
scalar abilene_cost_network.node[7].core_layer 	data[7] 	116777
scalar abilene_cost_network.node[7].content_store 	p_hit[7] 	0.03310923813151
scalar abilene_cost_network.node[7].content_store 	hits[7] 	3999
scalar abilene_cost_network.node[7].content_store 	misses[7] 	116783
scalar abilene_cost_network.node[7].content_store 	decision_yes[7] 	116737
scalar abilene_cost_network.node[7].content_store 	decision_no[7] 	0
scalar abilene_cost_network.node[7].content_store 	decision_ratio[7] 	1
scalar abilene_cost_network.node[8].core_layer 	interests[8] 	64012
scalar abilene_cost_network.node[8].core_layer 	data[8] 	45455
scalar abilene_cost_network.node[8].content_store 	p_hit[8] 	0.28991439105168
scalar abilene_cost_network.node[8].content_store 	hits[8] 	18558
scalar abilene_cost_network.node[8].content_store 	misses[8] 	45454
scalar abilene_cost_network.node[8].content_store 	decision_yes[8] 	45452
scalar abilene_cost_network.node[8].content_store 	decision_no[8] 	0
scalar abilene_cost_network.node[8].content_store 	decision_ratio[8] 	1
scalar abilene_cost_network.node[9].core_layer 	interests[9] 	191224
scalar abilene_cost_network.node[9].core_layer 	data[9] 	128900
scalar abilene_cost_network.node[9].content_store 	p_hit[9] 	0.32500627536293
scalar abilene_cost_network.node[9].content_store 	hits[9] 	62149
scalar abilene_cost_network.node[9].content_store 	misses[9] 	129075
scalar abilene_cost_network.node[9].content_store 	decision_yes[9] 	128891
scalar abilene_cost_network.node[9].content_store 	decision_no[9] 	0
scalar abilene_cost_network.node[9].content_store 	decision_ratio[9] 	1
scalar abilene_cost_network.node[10].core_layer 	interests[10] 	158916
scalar abilene_cost_network.node[10].core_layer 	data[10] 	154036
scalar abilene_cost_network.node[10].content_store 	p_hit[10] 	0.030689169120793
scalar abilene_cost_network.node[10].content_store 	hits[10] 	4877
scalar abilene_cost_network.node[10].content_store 	misses[10] 	154039
scalar abilene_cost_network.node[10].content_store 	decision_yes[10] 	154018
scalar abilene_cost_network.node[10].content_store 	decision_no[10] 	0
scalar abilene_cost_network.node[10].content_store 	decision_ratio[10] 	1
scalar abilene_cost_network.node[11].core_layer 	interests[11] 	107023
scalar abilene_cost_network.node[11].core_layer 	repo_load[11] 	107023
scalar abilene_cost_network.node[11].core_layer 	data[11] 	0
scalar abilene_cost_network.node[11].content_store 	p_hit[11] 	0
scalar abilene_cost_network.node[11].content_store 	hits[11] 	0
scalar abilene_cost_network.node[11].content_store 	misses[11] 	107023
scalar abilene_cost_network.node[11].content_store 	decision_yes[11] 	0
scalar abilene_cost_network.node[11].content_store 	decision_no[11] 	107023
scalar abilene_cost_network.node[11].content_store 	decision_ratio[11] 	0
scalar abilene_cost_network.node[12].core_layer 	interests[12] 	105168
scalar abilene_cost_network.node[12].core_layer 	repo_load[12] 	105168
scalar abilene_cost_network.node[12].core_layer 	data[12] 	0
scalar abilene_cost_network.node[12].content_store 	p_hit[12] 	0
scalar abilene_cost_network.node[12].content_store 	hits[12] 	0
scalar abilene_cost_network.node[12].content_store 	misses[12] 	105168
scalar abilene_cost_network.node[12].content_store 	decision_yes[12] 	0
scalar abilene_cost_network.node[12].content_store 	decision_no[12] 	105168
scalar abilene_cost_network.node[12].content_store 	decision_ratio[12] 	0
scalar abilene_cost_network.node[13].core_layer 	interests[13] 	106756
scalar abilene_cost_network.node[13].core_layer 	repo_load[13] 	106756
scalar abilene_cost_network.node[13].core_layer 	data[13] 	0
scalar abilene_cost_network.node[13].content_store 	p_hit[13] 	0
scalar abilene_cost_network.node[13].content_store 	hits[13] 	0
scalar abilene_cost_network.node[13].content_store 	misses[13] 	106756
scalar abilene_cost_network.node[13].content_store 	decision_yes[13] 	0
scalar abilene_cost_network.node[13].content_store 	decision_no[13] 	106756
scalar abilene_cost_network.node[13].content_store 	decision_ratio[13] 	0
scalar abilene_cost_network.client[0] 	hdistance[0] 	2.6671225688319
scalar abilene_cost_network.client[0] 	downloads[0] 	179132
scalar abilene_cost_network.client[0] 	avg_time[0] 	0.010914068682
scalar abilene_cost_network.client[0] 	interests_sent[0] 	179271
scalar abilene_cost_network.client[5] 	hdistance[5] 	3.6206934936272
scalar abilene_cost_network.client[5] 	downloads[5] 	179670
scalar abilene_cost_network.client[5] 	avg_time[5] 	0.013062293576
scalar abilene_cost_network.client[5] 	interests_sent[5] 	179846
scalar abilene_cost_network.client[9] 	hdistance[9] 	2.3742505679614
scalar abilene_cost_network.client[9] 	downloads[9] 	180470
scalar abilene_cost_network.client[9] 	avg_time[9] 	0.009665755723
scalar abilene_cost_network.client[9] 	interests_sent[9] 	180645
