version 2
run General-33-20140627-19:42:57-15428
attr D lce
attr F nrr
attr R lru
attr a 1
attr configname General
attr csize 1e3
attr ctlg 1e5
attr datetime 20140627-19:42:57
attr experiment General
attr inifile omnetpp.ini
attr iterationvars "$net=abilene_cost, $rep=19, $priceratiovalue=10, $weights=0.333_0.333_0.334, $lambda=100, $a=1, $ctlg=1e5, $F=nrr, $ttl=1000, $D=lce, $xi=1, $R=lru, $csize=1e3, $pricebits=0, $window=60, $variance=0.05, $mytime=1800"
attr iterationvars2 "$net=abilene_cost, $rep=19, $priceratiovalue=10, $weights=0.333_0.333_0.334, $lambda=100, $a=1, $ctlg=1e5, $F=nrr, $ttl=1000, $D=lce, $xi=1, $R=lru, $csize=1e3, $pricebits=0, $window=60, $variance=0.05, $mytime=1800, $repetition=0"
attr lambda 100
attr measurement "$net=abilene_cost, $rep=19, $priceratiovalue=10, $weights=0.333_0.333_0.334, $lambda=100, $a=1, $ctlg=1e5, $F=nrr, $ttl=1000, $D=lce, $xi=1, $R=lru, $csize=1e3, $pricebits=0, $window=60, $variance=0.05, $mytime=1800"
attr mytime 1800
attr net abilene_cost
attr network "networks.${net=geant_cost, abilene_cost}_network"
attr pricebits 0
attr priceratiovalue 10
attr processid 15428
attr rep 19
attr repetition 0
attr replication #0
attr resultdir results
attr runnumber 33
attr seedset 19
attr ttl 1000
attr variance 0.05
attr weights 0.333_0.333_0.334
attr window 60
attr xi 1

scalar . 	a 	1
scalar . 	csize 	1e3
scalar . 	ctlg 	1e5
scalar . 	lambda 	100
scalar . 	mytime 	1800
scalar . 	pricebits 	0
scalar . 	priceratiovalue 	10
scalar . 	rep 	19
scalar . 	ttl 	1000
scalar . 	variance 	0.05
scalar . 	window 	60
scalar . 	xi 	1
scalar abilene_cost_network.content_distribution 	repo-0 	11
scalar abilene_cost_network.content_distribution 	repo-1 	12
scalar abilene_cost_network.content_distribution 	repo-2 	13
scalar abilene_cost_network.content_distribution 	client-0 	5
scalar abilene_cost_network.content_distribution 	client-1 	0
scalar abilene_cost_network.content_distribution 	client-2 	9
scalar abilene_cost_network.content_distribution 	repo-0_card 	33368
scalar abilene_cost_network.content_distribution 	repo-1_card 	33389
scalar abilene_cost_network.content_distribution 	repo-2_card 	33243
scalar abilene_cost_network.statistics 	repo_popularity[0] 	0.2704974433948
scalar abilene_cost_network.statistics 	repo_popularity[1] 	0.39472808551936
scalar abilene_cost_network.statistics 	repo_popularity[2] 	0.33477447108584
scalar abilene_cost_network.statistics 	stabilization_time 	63.7
scalar abilene_cost_network.node[1].face$o[4].channel 	price[1] 	0
scalar abilene_cost_network.node[1].face$o[4].channel 	represented_price[1] 	0
scalar abilene_cost_network.node[7].face$o[4].channel 	price[7] 	0
scalar abilene_cost_network.node[7].face$o[4].channel 	represented_price[7] 	0
scalar abilene_cost_network.node[10].face$o[4].channel 	price[10] 	0
scalar abilene_cost_network.node[10].face$o[4].channel 	represented_price[10] 	0
scalar abilene_cost_network.node[11].face$o[1].channel 	price[11] 	0
scalar abilene_cost_network.node[11].face$o[1].channel 	represented_price[11] 	0
scalar abilene_cost_network.node[12].face$o[1].channel 	price[12] 	1
scalar abilene_cost_network.node[12].face$o[1].channel 	represented_price[12] 	1
scalar abilene_cost_network.node[13].face$o[1].channel 	price[13] 	10
scalar abilene_cost_network.node[13].face$o[1].channel 	represented_price[13] 	10
scalar abilene_cost_network.statistics 	p_hit 	0.12370119426017
scalar abilene_cost_network.statistics 	interests 	127012.28571429
scalar abilene_cost_network.statistics 	data 	88454
scalar abilene_cost_network.statistics 	hdistance 	2.8879797737616
scalar abilene_cost_network.statistics 	avg_time 	0.011178082818
scalar abilene_cost_network.statistics 	downloads 	539261
scalar abilene_cost_network.statistics 	total_cost 	1173217
scalar abilene_cost_network.statistics 	total_replicas 	100000
scalar abilene_cost_network.statistics 	inner_hit 	0.40790637557695
scalar abilene_cost_network.statistics 	interests_sent 	539816
scalar abilene_cost_network.node[0].core_layer 	interests[0] 	183367
scalar abilene_cost_network.node[0].core_layer 	data[0] 	128548
scalar abilene_cost_network.node[0].core_layer 	repo_int[0] 	319293
scalar abilene_cost_network.node[0].content_store 	p_hit[0] 	0.29796528273899
scalar abilene_cost_network.node[0].content_store 	hits[0] 	54637
scalar abilene_cost_network.node[0].content_store 	misses[0] 	128730
scalar abilene_cost_network.node[0].content_store 	decision_yes[0] 	128548
scalar abilene_cost_network.node[0].content_store 	decision_no[0] 	0
scalar abilene_cost_network.node[0].content_store 	decision_ratio[0] 	1
scalar abilene_cost_network.node[1].core_layer 	interests[1] 	193049
scalar abilene_cost_network.node[1].core_layer 	data[1] 	189162
scalar abilene_cost_network.node[1].content_store 	p_hit[1] 	0.020129604400955
scalar abilene_cost_network.node[1].content_store 	hits[1] 	3886
scalar abilene_cost_network.node[1].content_store 	misses[1] 	189163
scalar abilene_cost_network.node[1].content_store 	decision_yes[1] 	189109
scalar abilene_cost_network.node[1].content_store 	decision_no[1] 	0
scalar abilene_cost_network.node[1].content_store 	decision_ratio[1] 	1
scalar abilene_cost_network.node[2].core_layer 	interests[2] 	121449
scalar abilene_cost_network.node[2].core_layer 	data[2] 	117893
scalar abilene_cost_network.node[2].content_store 	p_hit[2] 	0.029279779989955
scalar abilene_cost_network.node[2].content_store 	hits[2] 	3556
scalar abilene_cost_network.node[2].content_store 	misses[2] 	117893
scalar abilene_cost_network.node[2].content_store 	decision_yes[2] 	117837
scalar abilene_cost_network.node[2].content_store 	decision_no[2] 	0
scalar abilene_cost_network.node[2].content_store 	decision_ratio[2] 	1
scalar abilene_cost_network.node[3].core_layer 	interests[3] 	113026
scalar abilene_cost_network.node[3].core_layer 	data[3] 	112117
scalar abilene_cost_network.node[3].content_store 	p_hit[3] 	0.0080423973245094
scalar abilene_cost_network.node[3].content_store 	hits[3] 	909
scalar abilene_cost_network.node[3].content_store 	misses[3] 	112117
scalar abilene_cost_network.node[3].content_store 	decision_yes[3] 	112104
scalar abilene_cost_network.node[3].content_store 	decision_no[3] 	0
scalar abilene_cost_network.node[3].content_store 	decision_ratio[3] 	1
scalar abilene_cost_network.node[4].core_layer 	interests[4] 	78723
scalar abilene_cost_network.node[4].core_layer 	data[4] 	75622
scalar abilene_cost_network.node[4].content_store 	p_hit[4] 	0.039391283360644
scalar abilene_cost_network.node[4].content_store 	hits[4] 	3101
scalar abilene_cost_network.node[4].content_store 	misses[4] 	75622
scalar abilene_cost_network.node[4].content_store 	decision_yes[4] 	75622
scalar abilene_cost_network.node[4].content_store 	decision_no[4] 	0
scalar abilene_cost_network.node[4].content_store 	decision_ratio[4] 	1
scalar abilene_cost_network.node[5].core_layer 	interests[5] 	180375
scalar abilene_cost_network.node[5].core_layer 	data[5] 	129341
scalar abilene_cost_network.node[5].content_store 	p_hit[5] 	0.28190159390159
scalar abilene_cost_network.node[5].content_store 	hits[5] 	50848
scalar abilene_cost_network.node[5].content_store 	misses[5] 	129527
scalar abilene_cost_network.node[5].content_store 	decision_yes[5] 	129341
scalar abilene_cost_network.node[5].content_store 	decision_no[5] 	0
scalar abilene_cost_network.node[5].content_store 	decision_ratio[5] 	1
scalar abilene_cost_network.node[6].core_layer 	interests[6] 	55672
scalar abilene_cost_network.node[6].core_layer 	data[6] 	42783
scalar abilene_cost_network.node[6].content_store 	p_hit[6] 	0.23151674091105
scalar abilene_cost_network.node[6].content_store 	hits[6] 	12889
scalar abilene_cost_network.node[6].content_store 	misses[6] 	42783
scalar abilene_cost_network.node[6].content_store 	decision_yes[6] 	42783
scalar abilene_cost_network.node[6].content_store 	decision_no[6] 	0
scalar abilene_cost_network.node[6].content_store 	decision_ratio[6] 	1
scalar abilene_cost_network.node[7].core_layer 	interests[7] 	116680
scalar abilene_cost_network.node[7].core_layer 	data[7] 	112989
scalar abilene_cost_network.node[7].content_store 	p_hit[7] 	0.031607816249571
scalar abilene_cost_network.node[7].content_store 	hits[7] 	3688
scalar abilene_cost_network.node[7].content_store 	misses[7] 	112992
scalar abilene_cost_network.node[7].content_store 	decision_yes[7] 	112958
scalar abilene_cost_network.node[7].content_store 	decision_no[7] 	0
scalar abilene_cost_network.node[7].content_store 	decision_ratio[7] 	1
scalar abilene_cost_network.node[8].core_layer 	interests[8] 	62408
scalar abilene_cost_network.node[8].core_layer 	data[8] 	43611
scalar abilene_cost_network.node[8].content_store 	p_hit[8] 	0.30119535956929
scalar abilene_cost_network.node[8].content_store 	hits[8] 	18797
scalar abilene_cost_network.node[8].content_store 	misses[8] 	43611
scalar abilene_cost_network.node[8].content_store 	decision_yes[8] 	43603
scalar abilene_cost_network.node[8].content_store 	decision_no[8] 	0
scalar abilene_cost_network.node[8].content_store 	decision_ratio[8] 	1
scalar abilene_cost_network.node[9].core_layer 	interests[9] 	191236
scalar abilene_cost_network.node[9].core_layer 	data[9] 	128519
scalar abilene_cost_network.node[9].content_store 	p_hit[9] 	0.32696772574202
scalar abilene_cost_network.node[9].content_store 	hits[9] 	62528
scalar abilene_cost_network.node[9].content_store 	misses[9] 	128708
scalar abilene_cost_network.node[9].content_store 	decision_yes[9] 	128507
scalar abilene_cost_network.node[9].content_store 	decision_no[9] 	0
scalar abilene_cost_network.node[9].content_store 	decision_ratio[9] 	1
scalar abilene_cost_network.node[10].core_layer 	interests[10] 	162894
scalar abilene_cost_network.node[10].core_layer 	data[10] 	157771
scalar abilene_cost_network.node[10].content_store 	p_hit[10] 	0.031449899934927
scalar abilene_cost_network.node[10].content_store 	hits[10] 	5123
scalar abilene_cost_network.node[10].content_store 	misses[10] 	157771
scalar abilene_cost_network.node[10].content_store 	decision_yes[10] 	157736
scalar abilene_cost_network.node[10].content_store 	decision_no[10] 	0
scalar abilene_cost_network.node[10].content_store 	decision_ratio[10] 	1
scalar abilene_cost_network.node[11].core_layer 	interests[11] 	110534
scalar abilene_cost_network.node[11].core_layer 	repo_load[11] 	110534
scalar abilene_cost_network.node[11].core_layer 	data[11] 	0
scalar abilene_cost_network.node[11].content_store 	p_hit[11] 	0
scalar abilene_cost_network.node[11].content_store 	hits[11] 	0
scalar abilene_cost_network.node[11].content_store 	misses[11] 	110534
scalar abilene_cost_network.node[11].content_store 	decision_yes[11] 	0
scalar abilene_cost_network.node[11].content_store 	decision_no[11] 	110534
scalar abilene_cost_network.node[11].content_store 	decision_ratio[11] 	0
scalar abilene_cost_network.node[12].core_layer 	interests[12] 	101597
scalar abilene_cost_network.node[12].core_layer 	repo_load[12] 	101597
scalar abilene_cost_network.node[12].core_layer 	data[12] 	0
scalar abilene_cost_network.node[12].content_store 	p_hit[12] 	0
scalar abilene_cost_network.node[12].content_store 	hits[12] 	0
scalar abilene_cost_network.node[12].content_store 	misses[12] 	101597
scalar abilene_cost_network.node[12].content_store 	decision_yes[12] 	0
scalar abilene_cost_network.node[12].content_store 	decision_no[12] 	101597
scalar abilene_cost_network.node[12].content_store 	decision_ratio[12] 	0
scalar abilene_cost_network.node[13].core_layer 	interests[13] 	107162
scalar abilene_cost_network.node[13].core_layer 	repo_load[13] 	107162
scalar abilene_cost_network.node[13].core_layer 	data[13] 	0
scalar abilene_cost_network.node[13].content_store 	p_hit[13] 	0
scalar abilene_cost_network.node[13].content_store 	hits[13] 	0
scalar abilene_cost_network.node[13].content_store 	misses[13] 	107162
scalar abilene_cost_network.node[13].content_store 	decision_yes[13] 	0
scalar abilene_cost_network.node[13].content_store 	decision_no[13] 	107162
scalar abilene_cost_network.node[13].content_store 	decision_ratio[13] 	0
scalar abilene_cost_network.client[0] 	hdistance[0] 	2.6521853181003
scalar abilene_cost_network.client[0] 	downloads[0] 	179173
scalar abilene_cost_network.client[0] 	avg_time[0] 	0.010811412918
scalar abilene_cost_network.client[0] 	interests_sent[0] 	179355
scalar abilene_cost_network.client[5] 	hdistance[5] 	3.6503084205198
scalar abilene_cost_network.client[5] 	downloads[5] 	179787
scalar abilene_cost_network.client[5] 	avg_time[5] 	0.013252313699
scalar abilene_cost_network.client[5] 	interests_sent[5] 	179973
scalar abilene_cost_network.client[9] 	hdistance[9] 	2.3614455826645
scalar abilene_cost_network.client[9] 	downloads[9] 	180301
scalar abilene_cost_network.client[9] 	avg_time[9] 	0.009470521837
scalar abilene_cost_network.client[9] 	interests_sent[9] 	180488
