version 2
run General-25-20140627-19:26:39-15387
attr D lce
attr F nrr
attr R lru
attr a 1
attr configname General
attr csize 1e3
attr ctlg 1e5
attr datetime 20140627-19:26:39
attr experiment General
attr inifile omnetpp.ini
attr iterationvars "$net=abilene_cost, $rep=18, $priceratiovalue=10, $weights=0.333_0.333_0.334, $lambda=100, $a=1, $ctlg=1e5, $F=nrr, $ttl=1000, $D=lce, $xi=1, $R=lru, $csize=1e3, $pricebits=0, $window=60, $variance=0.05, $mytime=1800"
attr iterationvars2 "$net=abilene_cost, $rep=18, $priceratiovalue=10, $weights=0.333_0.333_0.334, $lambda=100, $a=1, $ctlg=1e5, $F=nrr, $ttl=1000, $D=lce, $xi=1, $R=lru, $csize=1e3, $pricebits=0, $window=60, $variance=0.05, $mytime=1800, $repetition=0"
attr lambda 100
attr measurement "$net=abilene_cost, $rep=18, $priceratiovalue=10, $weights=0.333_0.333_0.334, $lambda=100, $a=1, $ctlg=1e5, $F=nrr, $ttl=1000, $D=lce, $xi=1, $R=lru, $csize=1e3, $pricebits=0, $window=60, $variance=0.05, $mytime=1800"
attr mytime 1800
attr net abilene_cost
attr network "networks.${net=geant_cost, abilene_cost}_network"
attr pricebits 0
attr priceratiovalue 10
attr processid 15387
attr rep 18
attr repetition 0
attr replication #0
attr resultdir results
attr runnumber 25
attr seedset 18
attr ttl 1000
attr variance 0.05
attr weights 0.333_0.333_0.334
attr window 60
attr xi 1

scalar . 	a 	1
scalar . 	csize 	1e3
scalar . 	ctlg 	1e5
scalar . 	lambda 	100
scalar . 	mytime 	1800
scalar . 	pricebits 	0
scalar . 	priceratiovalue 	10
scalar . 	rep 	18
scalar . 	ttl 	1000
scalar . 	variance 	0.05
scalar . 	window 	60
scalar . 	xi 	1
scalar abilene_cost_network.content_distribution 	repo-0 	11
scalar abilene_cost_network.content_distribution 	repo-1 	12
scalar abilene_cost_network.content_distribution 	repo-2 	13
scalar abilene_cost_network.content_distribution 	client-0 	5
scalar abilene_cost_network.content_distribution 	client-1 	0
scalar abilene_cost_network.content_distribution 	client-2 	9
scalar abilene_cost_network.content_distribution 	repo-0_card 	33459
scalar abilene_cost_network.content_distribution 	repo-1_card 	33216
scalar abilene_cost_network.content_distribution 	repo-2_card 	33325
scalar abilene_cost_network.statistics 	repo_popularity[0] 	0.37544107217466
scalar abilene_cost_network.statistics 	repo_popularity[1] 	0.27083019094872
scalar abilene_cost_network.statistics 	repo_popularity[2] 	0.35372873687662
scalar abilene_cost_network.statistics 	stabilization_time 	64
scalar abilene_cost_network.node[1].face$o[4].channel 	price[1] 	0
scalar abilene_cost_network.node[1].face$o[4].channel 	represented_price[1] 	0
scalar abilene_cost_network.node[7].face$o[4].channel 	price[7] 	0
scalar abilene_cost_network.node[7].face$o[4].channel 	represented_price[7] 	0
scalar abilene_cost_network.node[10].face$o[4].channel 	price[10] 	0
scalar abilene_cost_network.node[10].face$o[4].channel 	represented_price[10] 	0
scalar abilene_cost_network.node[11].face$o[1].channel 	price[11] 	0
scalar abilene_cost_network.node[11].face$o[1].channel 	represented_price[11] 	0
scalar abilene_cost_network.node[12].face$o[1].channel 	price[12] 	1
scalar abilene_cost_network.node[12].face$o[1].channel 	represented_price[12] 	1
scalar abilene_cost_network.node[13].face$o[1].channel 	price[13] 	10
scalar abilene_cost_network.node[13].face$o[1].channel 	represented_price[13] 	10
scalar abilene_cost_network.statistics 	p_hit 	0.12371386340888
scalar abilene_cost_network.statistics 	interests 	126951.35714286
scalar abilene_cost_network.statistics 	data 	88378.571428571
scalar abilene_cost_network.statistics 	hdistance 	2.8857749426802
scalar abilene_cost_network.statistics 	avg_time 	0.011163094446
scalar abilene_cost_network.statistics 	downloads 	539491
scalar abilene_cost_network.statistics 	total_cost 	1175481
scalar abilene_cost_network.statistics 	total_replicas 	100000
scalar abilene_cost_network.statistics 	inner_hit 	0.4075786250373
scalar abilene_cost_network.statistics 	interests_sent 	540015
scalar abilene_cost_network.node[0].core_layer 	interests[0] 	183594
scalar abilene_cost_network.node[0].core_layer 	data[0] 	128954
scalar abilene_cost_network.node[0].core_layer 	repo_int[0] 	319606
scalar abilene_cost_network.node[0].content_store 	p_hit[0] 	0.29669270237589
scalar abilene_cost_network.node[0].content_store 	hits[0] 	54471
scalar abilene_cost_network.node[0].content_store 	misses[0] 	129123
scalar abilene_cost_network.node[0].content_store 	decision_yes[0] 	128953
scalar abilene_cost_network.node[0].content_store 	decision_no[0] 	0
scalar abilene_cost_network.node[0].content_store 	decision_ratio[0] 	1
scalar abilene_cost_network.node[1].core_layer 	interests[1] 	192779
scalar abilene_cost_network.node[1].core_layer 	data[1] 	188893
scalar abilene_cost_network.node[1].content_store 	p_hit[1] 	0.02015779727045
scalar abilene_cost_network.node[1].content_store 	hits[1] 	3886
scalar abilene_cost_network.node[1].content_store 	misses[1] 	188893
scalar abilene_cost_network.node[1].content_store 	decision_yes[1] 	188842
scalar abilene_cost_network.node[1].content_store 	decision_no[1] 	0
scalar abilene_cost_network.node[1].content_store 	decision_ratio[1] 	1
scalar abilene_cost_network.node[2].core_layer 	interests[2] 	121070
scalar abilene_cost_network.node[2].core_layer 	data[2] 	117627
scalar abilene_cost_network.node[2].content_store 	p_hit[2] 	0.028429833980342
scalar abilene_cost_network.node[2].content_store 	hits[2] 	3442
scalar abilene_cost_network.node[2].content_store 	misses[2] 	117628
scalar abilene_cost_network.node[2].content_store 	decision_yes[2] 	117581
scalar abilene_cost_network.node[2].content_store 	decision_no[2] 	0
scalar abilene_cost_network.node[2].content_store 	decision_ratio[2] 	1
scalar abilene_cost_network.node[3].core_layer 	interests[3] 	112759
scalar abilene_cost_network.node[3].core_layer 	data[3] 	111879
scalar abilene_cost_network.node[3].content_store 	p_hit[3] 	0.0077953866210236
scalar abilene_cost_network.node[3].content_store 	hits[3] 	879
scalar abilene_cost_network.node[3].content_store 	misses[3] 	111880
scalar abilene_cost_network.node[3].content_store 	decision_yes[3] 	111865
scalar abilene_cost_network.node[3].content_store 	decision_no[3] 	0
scalar abilene_cost_network.node[3].content_store 	decision_ratio[3] 	1
scalar abilene_cost_network.node[4].core_layer 	interests[4] 	78697
scalar abilene_cost_network.node[4].core_layer 	data[4] 	75589
scalar abilene_cost_network.node[4].content_store 	p_hit[4] 	0.039480539283581
scalar abilene_cost_network.node[4].content_store 	hits[4] 	3107
scalar abilene_cost_network.node[4].content_store 	misses[4] 	75590
scalar abilene_cost_network.node[4].content_store 	decision_yes[4] 	75589
scalar abilene_cost_network.node[4].content_store 	decision_no[4] 	0
scalar abilene_cost_network.node[4].content_store 	decision_ratio[4] 	1
scalar abilene_cost_network.node[5].core_layer 	interests[5] 	180213
scalar abilene_cost_network.node[5].core_layer 	data[5] 	129118
scalar abilene_cost_network.node[5].content_store 	p_hit[5] 	0.28246574886384
scalar abilene_cost_network.node[5].content_store 	hits[5] 	50904
scalar abilene_cost_network.node[5].content_store 	misses[5] 	129309
scalar abilene_cost_network.node[5].content_store 	decision_yes[5] 	129118
scalar abilene_cost_network.node[5].content_store 	decision_no[5] 	0
scalar abilene_cost_network.node[5].content_store 	decision_ratio[5] 	1
scalar abilene_cost_network.node[6].core_layer 	interests[6] 	55348
scalar abilene_cost_network.node[6].core_layer 	data[6] 	42497
scalar abilene_cost_network.node[6].content_store 	p_hit[6] 	0.23218544482185
scalar abilene_cost_network.node[6].content_store 	hits[6] 	12851
scalar abilene_cost_network.node[6].content_store 	misses[6] 	42497
scalar abilene_cost_network.node[6].content_store 	decision_yes[6] 	42497
scalar abilene_cost_network.node[6].content_store 	decision_no[6] 	0
scalar abilene_cost_network.node[6].content_store 	decision_ratio[6] 	1
scalar abilene_cost_network.node[7].core_layer 	interests[7] 	116320
scalar abilene_cost_network.node[7].core_layer 	data[7] 	112767
scalar abilene_cost_network.node[7].content_store 	p_hit[7] 	0.030493466299862
scalar abilene_cost_network.node[7].content_store 	hits[7] 	3547
scalar abilene_cost_network.node[7].content_store 	misses[7] 	112773
scalar abilene_cost_network.node[7].content_store 	decision_yes[7] 	112735
scalar abilene_cost_network.node[7].content_store 	decision_no[7] 	0
scalar abilene_cost_network.node[7].content_store 	decision_ratio[7] 	1
scalar abilene_cost_network.node[8].core_layer 	interests[8] 	62421
scalar abilene_cost_network.node[8].core_layer 	data[8] 	43721
scalar abilene_cost_network.node[8].content_store 	p_hit[8] 	0.29956264718604
scalar abilene_cost_network.node[8].content_store 	hits[8] 	18699
scalar abilene_cost_network.node[8].content_store 	misses[8] 	43722
scalar abilene_cost_network.node[8].content_store 	decision_yes[8] 	43714
scalar abilene_cost_network.node[8].content_store 	decision_no[8] 	0
scalar abilene_cost_network.node[8].content_store 	decision_ratio[8] 	1
scalar abilene_cost_network.node[9].core_layer 	interests[9] 	191305
scalar abilene_cost_network.node[9].core_layer 	data[9] 	128496
scalar abilene_cost_network.node[9].content_store 	p_hit[9] 	0.32746138365437
scalar abilene_cost_network.node[9].content_store 	hits[9] 	62645
scalar abilene_cost_network.node[9].content_store 	misses[9] 	128660
scalar abilene_cost_network.node[9].content_store 	decision_yes[9] 	128483
scalar abilene_cost_network.node[9].content_store 	decision_no[9] 	0
scalar abilene_cost_network.node[9].content_store 	decision_ratio[9] 	1
scalar abilene_cost_network.node[10].core_layer 	interests[10] 	163207
scalar abilene_cost_network.node[10].core_layer 	data[10] 	157759
scalar abilene_cost_network.node[10].content_store 	p_hit[10] 	0.03338092116147
scalar abilene_cost_network.node[10].content_store 	hits[10] 	5448
scalar abilene_cost_network.node[10].content_store 	misses[10] 	157759
scalar abilene_cost_network.node[10].content_store 	decision_yes[10] 	157723
scalar abilene_cost_network.node[10].content_store 	decision_no[10] 	0
scalar abilene_cost_network.node[10].content_store 	decision_ratio[10] 	1
scalar abilene_cost_network.node[11].core_layer 	interests[11] 	110851
scalar abilene_cost_network.node[11].core_layer 	repo_load[11] 	110851
scalar abilene_cost_network.node[11].core_layer 	data[11] 	0
scalar abilene_cost_network.node[11].content_store 	p_hit[11] 	0
scalar abilene_cost_network.node[11].content_store 	hits[11] 	0
scalar abilene_cost_network.node[11].content_store 	misses[11] 	110851
scalar abilene_cost_network.node[11].content_store 	decision_yes[11] 	0
scalar abilene_cost_network.node[11].content_store 	decision_no[11] 	110851
scalar abilene_cost_network.node[11].content_store 	decision_ratio[11] 	0
scalar abilene_cost_network.node[12].core_layer 	interests[12] 	101341
scalar abilene_cost_network.node[12].core_layer 	repo_load[12] 	101341
scalar abilene_cost_network.node[12].core_layer 	data[12] 	0
scalar abilene_cost_network.node[12].content_store 	p_hit[12] 	0
scalar abilene_cost_network.node[12].content_store 	hits[12] 	0
scalar abilene_cost_network.node[12].content_store 	misses[12] 	101341
scalar abilene_cost_network.node[12].content_store 	decision_yes[12] 	0
scalar abilene_cost_network.node[12].content_store 	decision_no[12] 	101341
scalar abilene_cost_network.node[12].content_store 	decision_ratio[12] 	0
scalar abilene_cost_network.node[13].core_layer 	interests[13] 	107414
scalar abilene_cost_network.node[13].core_layer 	repo_load[13] 	107414
scalar abilene_cost_network.node[13].core_layer 	data[13] 	0
scalar abilene_cost_network.node[13].content_store 	p_hit[13] 	0
scalar abilene_cost_network.node[13].content_store 	hits[13] 	0
scalar abilene_cost_network.node[13].content_store 	misses[13] 	107414
scalar abilene_cost_network.node[13].content_store 	decision_yes[13] 	0
scalar abilene_cost_network.node[13].content_store 	decision_no[13] 	107414
scalar abilene_cost_network.node[13].content_store 	decision_ratio[13] 	0
scalar abilene_cost_network.client[0] 	hdistance[0] 	2.6518310016165
scalar abilene_cost_network.client[0] 	downloads[0] 	179410
scalar abilene_cost_network.client[0] 	avg_time[0] 	0.010780350373
scalar abilene_cost_network.client[0] 	interests_sent[0] 	179579
scalar abilene_cost_network.client[5] 	hdistance[5] 	3.6479712806812
scalar abilene_cost_network.client[5] 	downloads[5] 	179670
scalar abilene_cost_network.client[5] 	avg_time[5] 	0.013252923333
scalar abilene_cost_network.client[5] 	interests_sent[5] 	179861
scalar abilene_cost_network.client[9] 	hdistance[9] 	2.3575225457428
scalar abilene_cost_network.client[9] 	downloads[9] 	180411
scalar abilene_cost_network.client[9] 	avg_time[9] 	0.009456009632
scalar abilene_cost_network.client[9] 	interests_sent[9] 	180575
