version 2
run General-41-20140630-13:26:32-25923
>>>>>>> e1705686414f379fcb9d06a9e50f5d7fe13c2c97
attr D lce
attr F nrr
attr R lru
attr a 1
attr configname General
attr csize 1e3
attr ctlg 1e5
attr datetime 20140630-13:26:32
>>>>>>> e1705686414f379fcb9d06a9e50f5d7fe13c2c97
attr experiment General
attr inifile omnetpp.ini
attr iterationvars "$net=abilene_cost, $rep=13, $priceratiovalue=10, $weights=0.333_0.333_0.334, $lambda=100, $a=1, $ctlg=1e5, $F=nrr, $ttl=1000, $D=lce, $xi=1, $R=lru, $csize=1e3, $pricebits=0, $window=60, $variance=0.05, $mytime=1800"
attr iterationvars2 "$net=abilene_cost, $rep=13, $priceratiovalue=10, $weights=0.333_0.333_0.334, $lambda=100, $a=1, $ctlg=1e5, $F=nrr, $ttl=1000, $D=lce, $xi=1, $R=lru, $csize=1e3, $pricebits=0, $window=60, $variance=0.05, $mytime=1800, $repetition=0"
attr lambda 100
attr measurement "$net=abilene_cost, $rep=13, $priceratiovalue=10, $weights=0.333_0.333_0.334, $lambda=100, $a=1, $ctlg=1e5, $F=nrr, $ttl=1000, $D=lce, $xi=1, $R=lru, $csize=1e3, $pricebits=0, $window=60, $variance=0.05, $mytime=1800"
attr mytime 1800
attr net abilene_cost
attr network "networks.${net=geant_cost, abilene_cost}_network"
attr pricebits 0
attr priceratiovalue 10
attr processid 25923
>>>>>>> e1705686414f379fcb9d06a9e50f5d7fe13c2c97
attr rep 13
attr repetition 0
attr replication #0
attr resultdir results
attr runnumber 41
attr seedset 13
attr ttl 1000
attr variance 0.05
attr weights 0.333_0.333_0.334
attr window 60
attr xi 1

scalar . 	a 	1
scalar . 	csize 	1e3
scalar . 	ctlg 	1e5
scalar . 	lambda 	100
scalar . 	mytime 	1800
scalar . 	pricebits 	0
scalar . 	priceratiovalue 	10
scalar . 	rep 	13
scalar . 	ttl 	1000
scalar . 	variance 	0.05
scalar . 	window 	60
scalar . 	xi 	1
scalar abilene_cost_network.content_distribution 	repo-0 	11
scalar abilene_cost_network.content_distribution 	repo-1 	12
scalar abilene_cost_network.content_distribution 	repo-2 	13
scalar abilene_cost_network.content_distribution 	client-0 	5
scalar abilene_cost_network.content_distribution 	client-1 	0
scalar abilene_cost_network.content_distribution 	client-2 	9
scalar abilene_cost_network.content_distribution 	repo-0_card 	33150
scalar abilene_cost_network.content_distribution 	repo-1_card 	33483
scalar abilene_cost_network.content_distribution 	repo-2_card 	33367
scalar abilene_cost_network.statistics 	repo_popularity[0] 	0.32452364638376
scalar abilene_cost_network.statistics 	repo_popularity[1] 	0.39627169592308
scalar abilene_cost_network.statistics 	repo_popularity[2] 	0.27920465769315
scalar abilene_cost_network.statistics 	stabilization_time 	63.1
scalar abilene_cost_network.node[1].face$o[4].channel 	price[1] 	0
scalar abilene_cost_network.node[1].face$o[4].channel 	represented_price[1] 	0
scalar abilene_cost_network.node[7].face$o[4].channel 	price[7] 	0
scalar abilene_cost_network.node[7].face$o[4].channel 	represented_price[7] 	0
scalar abilene_cost_network.node[10].face$o[4].channel 	price[10] 	0
scalar abilene_cost_network.node[10].face$o[4].channel 	represented_price[10] 	0
scalar abilene_cost_network.node[11].face$o[1].channel 	price[11] 	0
scalar abilene_cost_network.node[11].face$o[1].channel 	represented_price[11] 	0
scalar abilene_cost_network.node[12].face$o[1].channel 	price[12] 	1
scalar abilene_cost_network.node[12].face$o[1].channel 	represented_price[12] 	1
scalar abilene_cost_network.node[13].face$o[1].channel 	price[13] 	10
scalar abilene_cost_network.node[13].face$o[1].channel 	represented_price[13] 	10
scalar abilene_cost_network.statistics 	p_hit 	0.1237520925192
scalar abilene_cost_network.statistics 	interests 	126812.28571429
scalar abilene_cost_network.statistics 	data 	88297.071428571
scalar abilene_cost_network.statistics 	hdistance 	2.8850303212386
scalar abilene_cost_network.statistics 	avg_time 	0.011170989969
scalar abilene_cost_network.statistics 	downloads 	538696
scalar abilene_cost_network.statistics 	total_cost 	1173347
scalar abilene_cost_network.statistics 	total_replicas 	100000
scalar abilene_cost_network.statistics 	inner_hit 	0.40784783996911
scalar abilene_cost_network.statistics 	interests_sent 	539209
scalar abilene_cost_network.node[0].core_layer 	interests[0] 	183734
scalar abilene_cost_network.node[0].core_layer 	data[0] 	128541
scalar abilene_cost_network.node[0].core_layer 	repo_int[0] 	318990
scalar abilene_cost_network.node[0].content_store 	p_hit[0] 	0.29934579337521
scalar abilene_cost_network.node[0].content_store 	hits[0] 	55000
scalar abilene_cost_network.node[0].content_store 	misses[0] 	128734
scalar abilene_cost_network.node[0].content_store 	decision_yes[0] 	128541
scalar abilene_cost_network.node[0].content_store 	decision_no[0] 	0
scalar abilene_cost_network.node[0].content_store 	decision_ratio[0] 	1
scalar abilene_cost_network.node[1].core_layer 	interests[1] 	192791
scalar abilene_cost_network.node[1].core_layer 	data[1] 	188821
scalar abilene_cost_network.node[1].content_store 	p_hit[1] 	0.020597434527545
scalar abilene_cost_network.node[1].content_store 	hits[1] 	3971
scalar abilene_cost_network.node[1].content_store 	misses[1] 	188820
scalar abilene_cost_network.node[1].content_store 	decision_yes[1] 	188752
scalar abilene_cost_network.node[1].content_store 	decision_no[1] 	0
scalar abilene_cost_network.node[1].content_store 	decision_ratio[1] 	1
scalar abilene_cost_network.node[2].core_layer 	interests[2] 	121162
scalar abilene_cost_network.node[2].core_layer 	data[2] 	117711
scalar abilene_cost_network.node[2].content_store 	p_hit[2] 	0.028474274112345
scalar abilene_cost_network.node[2].content_store 	hits[2] 	3450
scalar abilene_cost_network.node[2].content_store 	misses[2] 	117712
scalar abilene_cost_network.node[2].content_store 	decision_yes[2] 	117661
scalar abilene_cost_network.node[2].content_store 	decision_no[2] 	0
scalar abilene_cost_network.node[2].content_store 	decision_ratio[2] 	1
scalar abilene_cost_network.node[3].core_layer 	interests[3] 	112929
scalar abilene_cost_network.node[3].core_layer 	data[3] 	112058
scalar abilene_cost_network.node[3].content_store 	p_hit[3] 	0.0077039555827113
scalar abilene_cost_network.node[3].content_store 	hits[3] 	870
scalar abilene_cost_network.node[3].content_store 	misses[3] 	112059
scalar abilene_cost_network.node[3].content_store 	decision_yes[3] 	112045
scalar abilene_cost_network.node[3].content_store 	decision_no[3] 	0
scalar abilene_cost_network.node[3].content_store 	decision_ratio[3] 	1
scalar abilene_cost_network.node[4].core_layer 	interests[4] 	78612
scalar abilene_cost_network.node[4].core_layer 	data[4] 	75424
scalar abilene_cost_network.node[4].content_store 	p_hit[4] 	0.040540884343357
scalar abilene_cost_network.node[4].content_store 	hits[4] 	3187
scalar abilene_cost_network.node[4].content_store 	misses[4] 	75425
scalar abilene_cost_network.node[4].content_store 	decision_yes[4] 	75424
scalar abilene_cost_network.node[4].content_store 	decision_no[4] 	0
scalar abilene_cost_network.node[4].content_store 	decision_ratio[4] 	1
scalar abilene_cost_network.node[5].core_layer 	interests[5] 	180612
scalar abilene_cost_network.node[5].core_layer 	data[5] 	129264
scalar abilene_cost_network.node[5].content_store 	p_hit[5] 	0.28330897171838
scalar abilene_cost_network.node[5].content_store 	hits[5] 	51169
scalar abilene_cost_network.node[5].content_store 	misses[5] 	129443
scalar abilene_cost_network.node[5].content_store 	decision_yes[5] 	129264
scalar abilene_cost_network.node[5].content_store 	decision_no[5] 	0
scalar abilene_cost_network.node[5].content_store 	decision_ratio[5] 	1
scalar abilene_cost_network.node[6].core_layer 	interests[6] 	55623
scalar abilene_cost_network.node[6].core_layer 	data[6] 	42813
scalar abilene_cost_network.node[6].content_store 	p_hit[6] 	0.23028243712133
scalar abilene_cost_network.node[6].content_store 	hits[6] 	12809
scalar abilene_cost_network.node[6].content_store 	misses[6] 	42814
scalar abilene_cost_network.node[6].content_store 	decision_yes[6] 	42813
scalar abilene_cost_network.node[6].content_store 	decision_no[6] 	0
scalar abilene_cost_network.node[6].content_store 	decision_ratio[6] 	1
scalar abilene_cost_network.node[7].core_layer 	interests[7] 	117095
scalar abilene_cost_network.node[7].core_layer 	data[7] 	113514
scalar abilene_cost_network.node[7].content_store 	p_hit[7] 	0.030582006063453
scalar abilene_cost_network.node[7].content_store 	hits[7] 	3581
scalar abilene_cost_network.node[7].content_store 	misses[7] 	113514
scalar abilene_cost_network.node[7].content_store 	decision_yes[7] 	113485
scalar abilene_cost_network.node[7].content_store 	decision_no[7] 	0
scalar abilene_cost_network.node[7].content_store 	decision_ratio[7] 	1
scalar abilene_cost_network.node[8].core_layer 	interests[8] 	62358
scalar abilene_cost_network.node[8].core_layer 	data[8] 	43921
scalar abilene_cost_network.node[8].content_store 	p_hit[8] 	0.29566374803554
scalar abilene_cost_network.node[8].content_store 	hits[8] 	18437
scalar abilene_cost_network.node[8].content_store 	misses[8] 	43921
scalar abilene_cost_network.node[8].content_store 	decision_yes[8] 	43919
scalar abilene_cost_network.node[8].content_store 	decision_no[8] 	0
scalar abilene_cost_network.node[8].content_store 	decision_ratio[8] 	1
scalar abilene_cost_network.node[9].core_layer 	interests[9] 	189917
scalar abilene_cost_network.node[9].core_layer 	data[9] 	127665
scalar abilene_cost_network.node[9].content_store 	p_hit[9] 	0.32703760063607
scalar abilene_cost_network.node[9].content_store 	hits[9] 	62110
scalar abilene_cost_network.node[9].content_store 	misses[9] 	127807
scalar abilene_cost_network.node[9].content_store 	decision_yes[9] 	127659
scalar abilene_cost_network.node[9].content_store 	decision_no[9] 	0
scalar abilene_cost_network.node[9].content_store 	decision_ratio[9] 	1
scalar abilene_cost_network.node[10].core_layer 	interests[10] 	161549
scalar abilene_cost_network.node[10].core_layer 	data[10] 	156427
scalar abilene_cost_network.node[10].content_store 	p_hit[10] 	0.031705550637887
scalar abilene_cost_network.node[10].content_store 	hits[10] 	5122
scalar abilene_cost_network.node[10].content_store 	misses[10] 	156427
scalar abilene_cost_network.node[10].content_store 	decision_yes[10] 	156399
scalar abilene_cost_network.node[10].content_store 	decision_no[10] 	0
scalar abilene_cost_network.node[10].content_store 	decision_ratio[10] 	1
scalar abilene_cost_network.node[11].core_layer 	interests[11] 	109633
scalar abilene_cost_network.node[11].core_layer 	repo_load[11] 	109633
scalar abilene_cost_network.node[11].core_layer 	data[11] 	0
scalar abilene_cost_network.node[11].content_store 	p_hit[11] 	0
scalar abilene_cost_network.node[11].content_store 	hits[11] 	0
scalar abilene_cost_network.node[11].content_store 	misses[11] 	109633
scalar abilene_cost_network.node[11].content_store 	decision_yes[11] 	0
scalar abilene_cost_network.node[11].content_store 	decision_no[11] 	109633
scalar abilene_cost_network.node[11].content_store 	decision_ratio[11] 	0
scalar abilene_cost_network.node[12].core_layer 	interests[12] 	102247
scalar abilene_cost_network.node[12].core_layer 	repo_load[12] 	102247
scalar abilene_cost_network.node[12].core_layer 	data[12] 	0
scalar abilene_cost_network.node[12].content_store 	p_hit[12] 	0
scalar abilene_cost_network.node[12].content_store 	hits[12] 	0
scalar abilene_cost_network.node[12].content_store 	misses[12] 	102247
scalar abilene_cost_network.node[12].content_store 	decision_yes[12] 	0
scalar abilene_cost_network.node[12].content_store 	decision_no[12] 	102247
scalar abilene_cost_network.node[12].content_store 	decision_ratio[12] 	0
scalar abilene_cost_network.node[13].core_layer 	interests[13] 	107110
scalar abilene_cost_network.node[13].core_layer 	repo_load[13] 	107110
scalar abilene_cost_network.node[13].core_layer 	data[13] 	0
scalar abilene_cost_network.node[13].content_store 	p_hit[13] 	0
scalar abilene_cost_network.node[13].content_store 	hits[13] 	0
scalar abilene_cost_network.node[13].content_store 	misses[13] 	107110
scalar abilene_cost_network.node[13].content_store 	decision_yes[13] 	0
scalar abilene_cost_network.node[13].content_store 	decision_no[13] 	107110
scalar abilene_cost_network.node[13].content_store 	decision_ratio[13] 	0
scalar abilene_cost_network.client[0] 	hdistance[0] 	2.6483450384571
scalar abilene_cost_network.client[0] 	downloads[0] 	179551
scalar abilene_cost_network.client[0] 	avg_time[0] 	0.010777061923
scalar abilene_cost_network.client[0] 	interests_sent[0] 	179744
scalar abilene_cost_network.client[5] 	hdistance[5] 	3.6405858600445
scalar abilene_cost_network.client[5] 	downloads[5] 	180043
scalar abilene_cost_network.client[5] 	avg_time[5] 	0.013211348346
scalar abilene_cost_network.client[5] 	interests_sent[5] 	180222
scalar abilene_cost_network.client[9] 	hdistance[9] 	2.3661600652143
scalar abilene_cost_network.client[9] 	downloads[9] 	179102
scalar abilene_cost_network.client[9] 	avg_time[9] 	0.009524559639
scalar abilene_cost_network.client[9] 	interests_sent[9] 	179243
