version 2
run General-25-20140626-16:57:42-16775
attr D lce
attr F nrr
attr R lru
attr a 1
attr configname General
attr csize 1e3
attr ctlg 1e5
attr datetime 20140626-16:57:42
attr experiment General
attr inifile omnetpp.ini
attr iterationvars "$net=abilene_cost, $rep=8, $priceratiovalue=10, $weights=0.333_0.333_0.334, $lambda=100, $a=1, $ctlg=1e5, $F=nrr, $ttl=1000, $D=lce, $xi=1, $R=lru, $csize=1e3, $pricebits=0, $mytime=1800"
attr iterationvars2 "$net=abilene_cost, $rep=8, $priceratiovalue=10, $weights=0.333_0.333_0.334, $lambda=100, $a=1, $ctlg=1e5, $F=nrr, $ttl=1000, $D=lce, $xi=1, $R=lru, $csize=1e3, $pricebits=0, $mytime=1800, $repetition=0"
attr lambda 100
attr measurement "$net=abilene_cost, $rep=8, $priceratiovalue=10, $weights=0.333_0.333_0.334, $lambda=100, $a=1, $ctlg=1e5, $F=nrr, $ttl=1000, $D=lce, $xi=1, $R=lru, $csize=1e3, $pricebits=0, $mytime=1800"
attr mytime 1800
attr net abilene_cost
attr network "networks.${net=geant_cost, abilene_cost}_network"
attr pricebits 0
attr priceratiovalue 10
attr processid 16775
attr rep 8
attr repetition 0
attr replication #0
attr resultdir results
attr runnumber 25
attr seedset 8
attr ttl 1000
attr weights 0.333_0.333_0.334
attr xi 1

scalar . 	a 	1
scalar . 	csize 	1e3
scalar . 	ctlg 	1e5
scalar . 	lambda 	100
scalar . 	mytime 	1800
scalar . 	pricebits 	0
scalar . 	priceratiovalue 	10
scalar . 	rep 	8
scalar . 	ttl 	1000
scalar . 	xi 	1
scalar abilene_cost_network.content_distribution 	repo-0 	11
scalar abilene_cost_network.content_distribution 	repo-1 	12
scalar abilene_cost_network.content_distribution 	repo-2 	13
scalar abilene_cost_network.content_distribution 	client-0 	5
scalar abilene_cost_network.content_distribution 	client-1 	0
scalar abilene_cost_network.content_distribution 	client-2 	9
scalar abilene_cost_network.content_distribution 	repo-0_card 	33481
scalar abilene_cost_network.content_distribution 	repo-1_card 	33257
scalar abilene_cost_network.content_distribution 	repo-2_card 	33262
scalar abilene_cost_network.statistics 	repo_popularity[0] 	0.31048403425595
scalar abilene_cost_network.statistics 	repo_popularity[1] 	0.33358081359224
scalar abilene_cost_network.statistics 	repo_popularity[2] 	0.35593515215181
scalar abilene_cost_network.statistics 	stabilization_time 	63.6
scalar abilene_cost_network.node[1].face$o[4].channel 	price[1] 	0
scalar abilene_cost_network.node[1].face$o[4].channel 	represented_price[1] 	0
scalar abilene_cost_network.node[7].face$o[4].channel 	price[7] 	0
scalar abilene_cost_network.node[7].face$o[4].channel 	represented_price[7] 	0
scalar abilene_cost_network.node[10].face$o[4].channel 	price[10] 	0
scalar abilene_cost_network.node[10].face$o[4].channel 	represented_price[10] 	0
scalar abilene_cost_network.node[11].face$o[1].channel 	price[11] 	0
scalar abilene_cost_network.node[11].face$o[1].channel 	represented_price[11] 	0
scalar abilene_cost_network.node[12].face$o[1].channel 	price[12] 	1
scalar abilene_cost_network.node[12].face$o[1].channel 	represented_price[12] 	1
scalar abilene_cost_network.node[13].face$o[1].channel 	price[13] 	10
scalar abilene_cost_network.node[13].face$o[1].channel 	represented_price[13] 	10
scalar abilene_cost_network.statistics 	p_hit 	0.12425180482598
scalar abilene_cost_network.statistics 	interests 	127139.28571429
scalar abilene_cost_network.statistics 	data 	88525.642857143
scalar abilene_cost_network.statistics 	hdistance 	2.8843005398492
scalar abilene_cost_network.statistics 	avg_time 	0.011194103201
scalar abilene_cost_network.statistics 	downloads 	540068
scalar abilene_cost_network.statistics 	total_cost 	1167971
scalar abilene_cost_network.statistics 	total_replicas 	100000
scalar abilene_cost_network.statistics 	inner_hit 	0.40951880133613
scalar abilene_cost_network.statistics 	interests_sent 	540592
scalar abilene_cost_network.node[0].core_layer 	interests[0] 	184110
scalar abilene_cost_network.node[0].core_layer 	data[0] 	129261
scalar abilene_cost_network.node[0].core_layer 	repo_int[0] 	318900
scalar abilene_cost_network.node[0].content_store 	p_hit[0] 	0.2969094563033
scalar abilene_cost_network.node[0].content_store 	hits[0] 	54664
scalar abilene_cost_network.node[0].content_store 	misses[0] 	129446
scalar abilene_cost_network.node[0].content_store 	decision_yes[0] 	129261
scalar abilene_cost_network.node[0].content_store 	decision_no[0] 	0
scalar abilene_cost_network.node[0].content_store 	decision_ratio[0] 	1
scalar abilene_cost_network.node[1].core_layer 	interests[1] 	192104
scalar abilene_cost_network.node[1].core_layer 	data[1] 	188650
scalar abilene_cost_network.node[1].content_store 	p_hit[1] 	0.017979844251031
scalar abilene_cost_network.node[1].content_store 	hits[1] 	3454
scalar abilene_cost_network.node[1].content_store 	misses[1] 	188650
scalar abilene_cost_network.node[1].content_store 	decision_yes[1] 	188602
scalar abilene_cost_network.node[1].content_store 	decision_no[1] 	0
scalar abilene_cost_network.node[1].content_store 	decision_ratio[1] 	1
scalar abilene_cost_network.node[2].core_layer 	interests[2] 	121227
scalar abilene_cost_network.node[2].core_layer 	data[2] 	117797
scalar abilene_cost_network.node[2].content_store 	p_hit[2] 	0.028302275895634
scalar abilene_cost_network.node[2].content_store 	hits[2] 	3431
scalar abilene_cost_network.node[2].content_store 	misses[2] 	117796
scalar abilene_cost_network.node[2].content_store 	decision_yes[2] 	117741
scalar abilene_cost_network.node[2].content_store 	decision_no[2] 	0
scalar abilene_cost_network.node[2].content_store 	decision_ratio[2] 	1
scalar abilene_cost_network.node[3].core_layer 	interests[3] 	112837
scalar abilene_cost_network.node[3].core_layer 	data[3] 	111803
scalar abilene_cost_network.node[3].content_store 	p_hit[3] 	0.0091725231971782
scalar abilene_cost_network.node[3].content_store 	hits[3] 	1035
scalar abilene_cost_network.node[3].content_store 	misses[3] 	111802
scalar abilene_cost_network.node[3].content_store 	decision_yes[3] 	111787
scalar abilene_cost_network.node[3].content_store 	decision_no[3] 	0
scalar abilene_cost_network.node[3].content_store 	decision_ratio[3] 	1
scalar abilene_cost_network.node[4].core_layer 	interests[4] 	77225
scalar abilene_cost_network.node[4].core_layer 	data[4] 	74243
scalar abilene_cost_network.node[4].content_store 	p_hit[4] 	0.038627387504047
scalar abilene_cost_network.node[4].content_store 	hits[4] 	2983
scalar abilene_cost_network.node[4].content_store 	misses[4] 	74242
scalar abilene_cost_network.node[4].content_store 	decision_yes[4] 	74243
scalar abilene_cost_network.node[4].content_store 	decision_no[4] 	0
scalar abilene_cost_network.node[4].content_store 	decision_ratio[4] 	1
scalar abilene_cost_network.node[5].core_layer 	interests[5] 	180682
scalar abilene_cost_network.node[5].core_layer 	data[5] 	129438
scalar abilene_cost_network.node[5].content_store 	p_hit[5] 	0.28256826911369
scalar abilene_cost_network.node[5].content_store 	hits[5] 	51055
scalar abilene_cost_network.node[5].content_store 	misses[5] 	129627
scalar abilene_cost_network.node[5].content_store 	decision_yes[5] 	129438
scalar abilene_cost_network.node[5].content_store 	decision_no[5] 	0
scalar abilene_cost_network.node[5].content_store 	decision_ratio[5] 	1
scalar abilene_cost_network.node[6].core_layer 	interests[6] 	57554
scalar abilene_cost_network.node[6].core_layer 	data[6] 	44109
scalar abilene_cost_network.node[6].content_store 	p_hit[6] 	0.23360669979498
scalar abilene_cost_network.node[6].content_store 	hits[6] 	13445
scalar abilene_cost_network.node[6].content_store 	misses[6] 	44109
scalar abilene_cost_network.node[6].content_store 	decision_yes[6] 	44109
scalar abilene_cost_network.node[6].content_store 	decision_no[6] 	0
scalar abilene_cost_network.node[6].content_store 	decision_ratio[6] 	1
scalar abilene_cost_network.node[7].core_layer 	interests[7] 	120600
scalar abilene_cost_network.node[7].core_layer 	data[7] 	116284
scalar abilene_cost_network.node[7].content_store 	p_hit[7] 	0.035729684908789
scalar abilene_cost_network.node[7].content_store 	hits[7] 	4309
scalar abilene_cost_network.node[7].content_store 	misses[7] 	116291
scalar abilene_cost_network.node[7].content_store 	decision_yes[7] 	116251
scalar abilene_cost_network.node[7].content_store 	decision_no[7] 	0
scalar abilene_cost_network.node[7].content_store 	decision_ratio[7] 	1
scalar abilene_cost_network.node[8].core_layer 	interests[8] 	64048
scalar abilene_cost_network.node[8].core_layer 	data[8] 	44761
scalar abilene_cost_network.node[8].content_store 	p_hit[8] 	0.30113352485636
scalar abilene_cost_network.node[8].content_store 	hits[8] 	19287
scalar abilene_cost_network.node[8].content_store 	misses[8] 	44761
scalar abilene_cost_network.node[8].content_store 	decision_yes[8] 	44756
scalar abilene_cost_network.node[8].content_store 	decision_no[8] 	0
scalar abilene_cost_network.node[8].content_store 	decision_ratio[8] 	1
scalar abilene_cost_network.node[9].core_layer 	interests[9] 	190723
scalar abilene_cost_network.node[9].core_layer 	data[9] 	128199
scalar abilene_cost_network.node[9].content_store 	p_hit[9] 	0.32703973825915
scalar abilene_cost_network.node[9].content_store 	hits[9] 	62374
scalar abilene_cost_network.node[9].content_store 	misses[9] 	128349
scalar abilene_cost_network.node[9].content_store 	decision_yes[9] 	128194
scalar abilene_cost_network.node[9].content_store 	decision_no[9] 	0
scalar abilene_cost_network.node[9].content_store 	decision_ratio[9] 	1
scalar abilene_cost_network.node[10].core_layer 	interests[10] 	159940
scalar abilene_cost_network.node[10].core_layer 	data[10] 	154814
scalar abilene_cost_network.node[10].content_store 	p_hit[10] 	0.032043266224834
scalar abilene_cost_network.node[10].content_store 	hits[10] 	5125
scalar abilene_cost_network.node[10].content_store 	misses[10] 	154815
scalar abilene_cost_network.node[10].content_store 	decision_yes[10] 	154792
scalar abilene_cost_network.node[10].content_store 	decision_no[10] 	0
scalar abilene_cost_network.node[10].content_store 	decision_ratio[10] 	1
scalar abilene_cost_network.node[11].core_layer 	interests[11] 	108160
scalar abilene_cost_network.node[11].core_layer 	repo_load[11] 	108160
scalar abilene_cost_network.node[11].core_layer 	data[11] 	0
scalar abilene_cost_network.node[11].content_store 	p_hit[11] 	0
scalar abilene_cost_network.node[11].content_store 	hits[11] 	0
scalar abilene_cost_network.node[11].content_store 	misses[11] 	108160
scalar abilene_cost_network.node[11].content_store 	decision_yes[11] 	0
scalar abilene_cost_network.node[11].content_store 	decision_no[11] 	108160
scalar abilene_cost_network.node[11].content_store 	decision_ratio[11] 	0
scalar abilene_cost_network.node[12].core_layer 	interests[12] 	104381
scalar abilene_cost_network.node[12].core_layer 	repo_load[12] 	104381
scalar abilene_cost_network.node[12].core_layer 	data[12] 	0
scalar abilene_cost_network.node[12].content_store 	p_hit[12] 	0
scalar abilene_cost_network.node[12].content_store 	hits[12] 	0
scalar abilene_cost_network.node[12].content_store 	misses[12] 	104381
scalar abilene_cost_network.node[12].content_store 	decision_yes[12] 	0
scalar abilene_cost_network.node[12].content_store 	decision_no[12] 	104381
scalar abilene_cost_network.node[12].content_store 	decision_ratio[12] 	0
scalar abilene_cost_network.node[13].core_layer 	interests[13] 	106359
scalar abilene_cost_network.node[13].core_layer 	repo_load[13] 	106359
scalar abilene_cost_network.node[13].core_layer 	data[13] 	0
scalar abilene_cost_network.node[13].content_store 	p_hit[13] 	0
scalar abilene_cost_network.node[13].content_store 	hits[13] 	0
scalar abilene_cost_network.node[13].content_store 	misses[13] 	106359
scalar abilene_cost_network.node[13].content_store 	decision_yes[13] 	0
scalar abilene_cost_network.node[13].content_store 	decision_no[13] 	106359
scalar abilene_cost_network.node[13].content_store 	decision_ratio[13] 	0
scalar abilene_cost_network.client[0] 	hdistance[0] 	2.6676378367879
scalar abilene_cost_network.client[0] 	downloads[0] 	180195
scalar abilene_cost_network.client[0] 	avg_time[0] 	0.010928466531
scalar abilene_cost_network.client[0] 	interests_sent[0] 	180380
scalar abilene_cost_network.client[5] 	hdistance[5] 	3.6195411998534
scalar abilene_cost_network.client[5] 	downloads[5] 	180122
scalar abilene_cost_network.client[5] 	avg_time[5] 	0.013064682088
scalar abilene_cost_network.client[5] 	interests_sent[5] 	180311
scalar abilene_cost_network.client[9] 	hdistance[9] 	2.3657225829063
scalar abilene_cost_network.client[9] 	downloads[9] 	179751
scalar abilene_cost_network.client[9] 	avg_time[9] 	0.009589160985
scalar abilene_cost_network.client[9] 	interests_sent[9] 	179901
