version 2
run General-418-20140502-01:52:14-9303
attr D costprob0.005
attr F nrr
attr R lru
attr a 1
attr configname General
attr csize 1e3
attr ctlg 1e5
attr datetime 20140502-01:52:14
attr experiment General
attr inifile omnetpp.ini
attr iterationvars "$net=three_caches_scenario_3_links, $rep=1, $priceratiovalue=5, $weights=0_0.5_0.5, $a=1, $ctlg=1e5, $F=nrr, $ttl=1000, $D=costprob0.005, $xi=1, $R=lru, $csize=1e3"
attr iterationvars2 "$net=three_caches_scenario_3_links, $rep=1, $priceratiovalue=5, $weights=0_0.5_0.5, $a=1, $ctlg=1e5, $F=nrr, $ttl=1000, $D=costprob0.005, $xi=1, $R=lru, $csize=1e3, $repetition=0"
attr measurement "$net=three_caches_scenario_3_links, $rep=1, $priceratiovalue=5, $weights=0_0.5_0.5, $a=1, $ctlg=1e5, $F=nrr, $ttl=1000, $D=costprob0.005, $xi=1, $R=lru, $csize=1e3"
attr net three_caches_scenario_3_links
attr network networks.${net=three_caches_scenario_3_links}_network
attr priceratiovalue 5
attr processid 9303
attr rep 1
attr repetition 0
attr replication #0
attr resultdir results
attr runnumber 418
attr seedset 1
attr ttl 1000
attr weights 0_0.5_0.5
attr xi 1

scalar . 	a 	1
scalar . 	csize 	1e3
scalar . 	ctlg 	1e5
scalar . 	priceratiovalue 	5
scalar . 	rep 	1
scalar . 	ttl 	1000
scalar . 	xi 	1
scalar three_caches_scenario_3_links_network.content_distribution 	repo-0 	4
scalar three_caches_scenario_3_links_network.content_distribution 	repo-1 	5
scalar three_caches_scenario_3_links_network.content_distribution 	repo-2 	6
scalar three_caches_scenario_3_links_network.content_distribution 	client-0 	0
scalar three_caches_scenario_3_links_network.content_distribution 	repo-0_card 	0
scalar three_caches_scenario_3_links_network.content_distribution 	repo-1_card 	50024
scalar three_caches_scenario_3_links_network.content_distribution 	repo-2_card 	49976
scalar three_caches_scenario_3_links_network.statistics 	p_hit 	0.25961445365647
scalar three_caches_scenario_3_links_network.statistics 	interests 	56068.857142857
scalar three_caches_scenario_3_links_network.statistics 	data 	30387.285714286
scalar three_caches_scenario_3_links_network.statistics 	hdistance 	1.6164342413404
scalar three_caches_scenario_3_links_network.statistics 	avg_time 	0
scalar three_caches_scenario_3_links_network.statistics 	downloads 	179771
scalar three_caches_scenario_3_links_network.statistics 	total_cost 	221209
scalar three_caches_scenario_3_links_network.statistics 	total_replicas 	100000
scalar three_caches_scenario_3_links_network.statistics 	interests_sent 	179771
scalar three_caches_scenario_3_links_network.node[0].core_layer 	interests[0] 	179771
scalar three_caches_scenario_3_links_network.node[0].core_layer 	data[0] 	134834
scalar three_caches_scenario_3_links_network.node[0].core_layer 	repo_int[0] 	77877
scalar three_caches_scenario_3_links_network.node[0].content_store 	p_hit[0] 	0.24996801486335
scalar three_caches_scenario_3_links_network.node[0].content_store 	hits[0] 	44937
scalar three_caches_scenario_3_links_network.node[0].content_store 	misses[0] 	134834
scalar three_caches_scenario_3_links_network.node[0].content_store 	decision_yes[0] 	375
scalar three_caches_scenario_3_links_network.node[0].content_store 	decision_no[0] 	134459
scalar three_caches_scenario_3_links_network.node[1].core_layer 	interests[1] 	0
scalar three_caches_scenario_3_links_network.node[1].core_layer 	data[1] 	0
scalar three_caches_scenario_3_links_network.node[1].content_store 	p_hit[1] 	-nan
scalar three_caches_scenario_3_links_network.node[1].content_store 	hits[1] 	0
scalar three_caches_scenario_3_links_network.node[1].content_store 	misses[1] 	0
scalar three_caches_scenario_3_links_network.node[1].content_store 	decision_yes[1] 	0
scalar three_caches_scenario_3_links_network.node[1].content_store 	decision_no[1] 	0
scalar three_caches_scenario_3_links_network.node[2].core_layer 	interests[2] 	74534
scalar three_caches_scenario_3_links_network.node[2].core_layer 	data[2] 	42044
scalar three_caches_scenario_3_links_network.node[2].content_store 	p_hit[2] 	0.4359084444683
scalar three_caches_scenario_3_links_network.node[2].content_store 	hits[2] 	32490
scalar three_caches_scenario_3_links_network.node[2].content_store 	misses[2] 	42044
scalar three_caches_scenario_3_links_network.node[2].content_store 	decision_yes[2] 	64
scalar three_caches_scenario_3_links_network.node[2].content_store 	decision_no[2] 	41980
scalar three_caches_scenario_3_links_network.node[3].core_layer 	interests[3] 	60300
scalar three_caches_scenario_3_links_network.node[3].core_layer 	data[3] 	35833
scalar three_caches_scenario_3_links_network.node[3].content_store 	p_hit[3] 	0.40575456053068
scalar three_caches_scenario_3_links_network.node[3].content_store 	hits[3] 	24467
scalar three_caches_scenario_3_links_network.node[3].content_store 	misses[3] 	35833
scalar three_caches_scenario_3_links_network.node[3].content_store 	decision_yes[3] 	299
scalar three_caches_scenario_3_links_network.node[3].content_store 	decision_no[3] 	35534
scalar three_caches_scenario_3_links_network.node[4].core_layer 	interests[4] 	0
scalar three_caches_scenario_3_links_network.node[4].core_layer 	data[4] 	0
scalar three_caches_scenario_3_links_network.node[4].content_store 	p_hit[4] 	-nan
scalar three_caches_scenario_3_links_network.node[4].content_store 	hits[4] 	0
scalar three_caches_scenario_3_links_network.node[4].content_store 	misses[4] 	0
scalar three_caches_scenario_3_links_network.node[4].content_store 	decision_yes[4] 	0
scalar three_caches_scenario_3_links_network.node[4].content_store 	decision_no[4] 	0
scalar three_caches_scenario_3_links_network.node[5].core_layer 	interests[5] 	42044
scalar three_caches_scenario_3_links_network.node[5].core_layer 	repo_load[5] 	42044
scalar three_caches_scenario_3_links_network.node[5].core_layer 	data[5] 	0
scalar three_caches_scenario_3_links_network.node[5].content_store 	p_hit[5] 	0
scalar three_caches_scenario_3_links_network.node[5].content_store 	hits[5] 	0
scalar three_caches_scenario_3_links_network.node[5].content_store 	misses[5] 	42044
scalar three_caches_scenario_3_links_network.node[5].content_store 	decision_yes[5] 	0
scalar three_caches_scenario_3_links_network.node[5].content_store 	decision_no[5] 	42044
scalar three_caches_scenario_3_links_network.node[6].core_layer 	interests[6] 	35833
scalar three_caches_scenario_3_links_network.node[6].core_layer 	repo_load[6] 	35833
scalar three_caches_scenario_3_links_network.node[6].core_layer 	data[6] 	0
scalar three_caches_scenario_3_links_network.node[6].content_store 	p_hit[6] 	0
scalar three_caches_scenario_3_links_network.node[6].content_store 	hits[6] 	0
scalar three_caches_scenario_3_links_network.node[6].content_store 	misses[6] 	35833
scalar three_caches_scenario_3_links_network.node[6].content_store 	decision_yes[6] 	0
scalar three_caches_scenario_3_links_network.node[6].content_store 	decision_no[6] 	35833
scalar three_caches_scenario_3_links_network.client[0] 	hdistance[0] 	1.6164342413404
scalar three_caches_scenario_3_links_network.client[0] 	downloads[0] 	179771
scalar three_caches_scenario_3_links_network.client[0] 	avg_time[0] 	0
scalar three_caches_scenario_3_links_network.client[0] 	interests_sent[0] 	179771
