version 2
run General-333-20140510-15:53:04-15583
attr D costprobtailsmart0.01
attr F nrr
attr R lru
attr a 1
attr configname General
attr csize 1e3
attr ctlg 1e5
attr datetime 20140510-15:53:04
attr experiment General
attr inifile omnetpp.ini
attr iterationvars "$net=one_cache_scenario_3_links, $rep=5, $priceratiovalue=1, $weights=0.333_0.333_0.334, $a=1, $ctlg=1e5, $F=nrr, $ttl=1000, $D=costprobtailsmart0.01, $xi=0.75, $R=lru, $csize=1e3"
attr iterationvars2 "$net=one_cache_scenario_3_links, $rep=5, $priceratiovalue=1, $weights=0.333_0.333_0.334, $a=1, $ctlg=1e5, $F=nrr, $ttl=1000, $D=costprobtailsmart0.01, $xi=0.75, $R=lru, $csize=1e3, $repetition=0"
attr measurement "$net=one_cache_scenario_3_links, $rep=5, $priceratiovalue=1, $weights=0.333_0.333_0.334, $a=1, $ctlg=1e5, $F=nrr, $ttl=1000, $D=costprobtailsmart0.01, $xi=0.75, $R=lru, $csize=1e3"
attr net one_cache_scenario_3_links
attr network networks.${net=one_cache_scenario_3_links}_network
attr priceratiovalue 1
attr processid 15583
attr rep 5
attr repetition 0
attr replication #0
attr resultdir results
attr runnumber 333
attr seedset 5
attr ttl 1000
attr weights 0.333_0.333_0.334
attr xi 0.75

scalar . 	a 	1
scalar . 	csize 	1e3
scalar . 	ctlg 	1e5
scalar . 	priceratiovalue 	1
scalar . 	rep 	5
scalar . 	ttl 	1000
scalar . 	xi 	0.75
scalar one_cache_scenario_3_links_network.content_distribution 	repo-0 	4
scalar one_cache_scenario_3_links_network.content_distribution 	repo-1 	5
scalar one_cache_scenario_3_links_network.content_distribution 	repo-2 	6
scalar one_cache_scenario_3_links_network.content_distribution 	client-0 	0
scalar one_cache_scenario_3_links_network.content_distribution 	repo-0_card 	33102
scalar one_cache_scenario_3_links_network.content_distribution 	repo-1_card 	33495
scalar one_cache_scenario_3_links_network.content_distribution 	repo-2_card 	33403
scalar one_cache_scenario_3_links_network.statistics 	p_hit 	0.25073746312684
scalar one_cache_scenario_3_links_network.statistics 	interests 	51285.857142857
scalar one_cache_scenario_3_links_network.statistics 	data 	25617.714285714
scalar one_cache_scenario_3_links_network.statistics 	hdistance 	0.99803536345776
scalar one_cache_scenario_3_links_network.statistics 	avg_time 	0
scalar one_cache_scenario_3_links_network.statistics 	downloads 	179677
scalar one_cache_scenario_3_links_network.statistics 	total_cost 	54188
scalar one_cache_scenario_3_links_network.statistics 	total_replicas 	100000
scalar one_cache_scenario_3_links_network.statistics 	interests_sent 	179677
scalar one_cache_scenario_3_links_network.node[0].core_layer 	interests[0] 	179677
scalar one_cache_scenario_3_links_network.node[0].core_layer 	data[0] 	89662
scalar one_cache_scenario_3_links_network.node[0].core_layer 	repo_int[0] 	89662
scalar one_cache_scenario_3_links_network.node[0].content_store 	p_hit[0] 	0.50098231827112
scalar one_cache_scenario_3_links_network.node[0].content_store 	hits[0] 	90015
scalar one_cache_scenario_3_links_network.node[0].content_store 	misses[0] 	89662
scalar one_cache_scenario_3_links_network.node[0].content_store 	decision_yes[0] 	41100
scalar one_cache_scenario_3_links_network.node[0].content_store 	decision_no[0] 	48562
scalar one_cache_scenario_3_links_network.node[0].content_store 	decision_ratio[0] 	0.45838816890098
scalar one_cache_scenario_3_links_network.node[0].content_store 	correction_factor[0] 	1.2561528137435e-316
scalar one_cache_scenario_3_links_network.node[0].content_store 	xi[0] 	0.75
scalar one_cache_scenario_3_links_network.node[1].core_layer 	interests[1] 	35474
scalar one_cache_scenario_3_links_network.node[1].core_layer 	data[1] 	35474
scalar one_cache_scenario_3_links_network.node[1].content_store 	p_hit[1] 	0
scalar one_cache_scenario_3_links_network.node[1].content_store 	hits[1] 	0
scalar one_cache_scenario_3_links_network.node[1].content_store 	misses[1] 	35474
scalar one_cache_scenario_3_links_network.node[1].content_store 	decision_yes[1] 	0
scalar one_cache_scenario_3_links_network.node[1].content_store 	decision_no[1] 	35474
scalar one_cache_scenario_3_links_network.node[1].content_store 	decision_ratio[1] 	0
scalar one_cache_scenario_3_links_network.node[2].core_layer 	interests[2] 	27371
scalar one_cache_scenario_3_links_network.node[2].core_layer 	data[2] 	27371
scalar one_cache_scenario_3_links_network.node[2].content_store 	p_hit[2] 	0
scalar one_cache_scenario_3_links_network.node[2].content_store 	hits[2] 	0
scalar one_cache_scenario_3_links_network.node[2].content_store 	misses[2] 	27371
scalar one_cache_scenario_3_links_network.node[2].content_store 	decision_yes[2] 	0
scalar one_cache_scenario_3_links_network.node[2].content_store 	decision_no[2] 	27371
scalar one_cache_scenario_3_links_network.node[2].content_store 	decision_ratio[2] 	0
scalar one_cache_scenario_3_links_network.node[3].core_layer 	interests[3] 	26817
scalar one_cache_scenario_3_links_network.node[3].core_layer 	data[3] 	26817
scalar one_cache_scenario_3_links_network.node[3].content_store 	p_hit[3] 	0
scalar one_cache_scenario_3_links_network.node[3].content_store 	hits[3] 	0
scalar one_cache_scenario_3_links_network.node[3].content_store 	misses[3] 	26817
scalar one_cache_scenario_3_links_network.node[3].content_store 	decision_yes[3] 	0
scalar one_cache_scenario_3_links_network.node[3].content_store 	decision_no[3] 	26817
scalar one_cache_scenario_3_links_network.node[3].content_store 	decision_ratio[3] 	0
scalar one_cache_scenario_3_links_network.node[4].core_layer 	interests[4] 	35474
scalar one_cache_scenario_3_links_network.node[4].core_layer 	repo_load[4] 	35474
scalar one_cache_scenario_3_links_network.node[4].core_layer 	data[4] 	0
scalar one_cache_scenario_3_links_network.node[4].content_store 	p_hit[4] 	0
scalar one_cache_scenario_3_links_network.node[4].content_store 	hits[4] 	0
scalar one_cache_scenario_3_links_network.node[4].content_store 	misses[4] 	35474
scalar one_cache_scenario_3_links_network.node[4].content_store 	decision_yes[4] 	0
scalar one_cache_scenario_3_links_network.node[4].content_store 	decision_no[4] 	35474
scalar one_cache_scenario_3_links_network.node[4].content_store 	decision_ratio[4] 	0
scalar one_cache_scenario_3_links_network.node[5].core_layer 	interests[5] 	27371
scalar one_cache_scenario_3_links_network.node[5].core_layer 	repo_load[5] 	27371
scalar one_cache_scenario_3_links_network.node[5].core_layer 	data[5] 	0
scalar one_cache_scenario_3_links_network.node[5].content_store 	p_hit[5] 	0
scalar one_cache_scenario_3_links_network.node[5].content_store 	hits[5] 	0
scalar one_cache_scenario_3_links_network.node[5].content_store 	misses[5] 	27371
scalar one_cache_scenario_3_links_network.node[5].content_store 	decision_yes[5] 	0
scalar one_cache_scenario_3_links_network.node[5].content_store 	decision_no[5] 	27371
scalar one_cache_scenario_3_links_network.node[5].content_store 	decision_ratio[5] 	0
scalar one_cache_scenario_3_links_network.node[6].core_layer 	interests[6] 	26817
scalar one_cache_scenario_3_links_network.node[6].core_layer 	repo_load[6] 	26817
scalar one_cache_scenario_3_links_network.node[6].core_layer 	data[6] 	0
scalar one_cache_scenario_3_links_network.node[6].content_store 	p_hit[6] 	0
scalar one_cache_scenario_3_links_network.node[6].content_store 	hits[6] 	0
scalar one_cache_scenario_3_links_network.node[6].content_store 	misses[6] 	26817
scalar one_cache_scenario_3_links_network.node[6].content_store 	decision_yes[6] 	0
scalar one_cache_scenario_3_links_network.node[6].content_store 	decision_no[6] 	26817
scalar one_cache_scenario_3_links_network.node[6].content_store 	decision_ratio[6] 	0
scalar one_cache_scenario_3_links_network.client[0] 	hdistance[0] 	0.99803536345776
scalar one_cache_scenario_3_links_network.client[0] 	downloads[0] 	179677
scalar one_cache_scenario_3_links_network.client[0] 	avg_time[0] 	0
scalar one_cache_scenario_3_links_network.client[0] 	interests_sent[0] 	179677
