version 2
run General-562-20140425-16:05:47-13022
attr D costprob0.2
attr F nrr
attr R lru
attr a 1.2
attr configname General
attr csize 30
attr ctlg 10^3
attr datetime 20140425-16:05:47
attr experiment General
attr inifile omnetpp.ini
attr iterationvars "$net=one_cache_scenario, $rep=5, $priceratiovalue=7, $a=1.2, $ctlg=10^3, $F=nrr, $ttl=1000, $D=costprob0.2, $R=lru, $csize=30"
attr iterationvars2 "$net=one_cache_scenario, $rep=5, $priceratiovalue=7, $a=1.2, $ctlg=10^3, $F=nrr, $ttl=1000, $D=costprob0.2, $R=lru, $csize=30, $repetition=0"
attr measurement "$net=one_cache_scenario, $rep=5, $priceratiovalue=7, $a=1.2, $ctlg=10^3, $F=nrr, $ttl=1000, $D=costprob0.2, $R=lru, $csize=30"
attr net one_cache_scenario
attr network networks.${net=one_cache_scenario}_network
attr priceratiovalue 7
attr processid 13022
attr rep 5
attr repetition 0
attr replication #0
attr resultdir results
attr runnumber 562
attr seedset 5
attr ttl 1000

scalar . 	a 	1.2
scalar . 	csize 	30
scalar . 	priceratiovalue 	7
scalar . 	rep 	5
scalar . 	ttl 	1000
scalar one_cache_scenario_network.content_distribution 	repo-0 	3
scalar one_cache_scenario_network.content_distribution 	repo-1 	4
scalar one_cache_scenario_network.content_distribution 	client-0 	0
scalar one_cache_scenario_network.content_distribution 	repo-0_card 	519
scalar one_cache_scenario_network.content_distribution 	repo-1_card 	481
scalar one_cache_scenario_network.statistics 	p_hit 	0.37578176591695
scalar one_cache_scenario_network.statistics 	interests 	61783.2
scalar one_cache_scenario_network.statistics 	data 	25710.8
scalar one_cache_scenario_network.statistics 	hdistance 	0.71275545846685
scalar one_cache_scenario_network.statistics 	avg_time 	0
scalar one_cache_scenario_network.statistics 	downloads 	180362
scalar one_cache_scenario_network.statistics 	total_cost 	27180
scalar one_cache_scenario_network.statistics 	interests_sent 	180362
scalar one_cache_scenario_network.node[0].core_layer 	interests[0] 	180362
scalar one_cache_scenario_network.node[0].core_layer 	data[0] 	64277
scalar one_cache_scenario_network.node[0].core_layer 	repo_int[0] 	64277
scalar one_cache_scenario_network.node[0].content_store 	p_hit[0] 	0.64362227076657
scalar one_cache_scenario_network.node[0].content_store 	hits[0] 	116085
scalar one_cache_scenario_network.node[0].content_store 	misses[0] 	64277
scalar one_cache_scenario_network.node[0].content_store 	decision_yes[0] 	5430
scalar one_cache_scenario_network.node[0].content_store 	decision_no[0] 	58847
scalar one_cache_scenario_network.node[1].core_layer 	interests[1] 	38749
scalar one_cache_scenario_network.node[1].core_layer 	data[1] 	38749
scalar one_cache_scenario_network.node[1].content_store 	p_hit[1] 	0
scalar one_cache_scenario_network.node[1].content_store 	hits[1] 	0
scalar one_cache_scenario_network.node[1].content_store 	misses[1] 	38749
scalar one_cache_scenario_network.node[1].content_store 	decision_yes[1] 	0
scalar one_cache_scenario_network.node[1].content_store 	decision_no[1] 	38749
scalar one_cache_scenario_network.node[2].core_layer 	interests[2] 	25528
scalar one_cache_scenario_network.node[2].core_layer 	data[2] 	25528
scalar one_cache_scenario_network.node[2].content_store 	p_hit[2] 	0
scalar one_cache_scenario_network.node[2].content_store 	hits[2] 	0
scalar one_cache_scenario_network.node[2].content_store 	misses[2] 	25528
scalar one_cache_scenario_network.node[2].content_store 	decision_yes[2] 	0
scalar one_cache_scenario_network.node[2].content_store 	decision_no[2] 	25528
scalar one_cache_scenario_network.node[3].core_layer 	interests[3] 	38749
scalar one_cache_scenario_network.node[3].core_layer 	repo_load[3] 	38749
scalar one_cache_scenario_network.node[3].core_layer 	data[3] 	0
scalar one_cache_scenario_network.node[3].content_store 	p_hit[3] 	0
scalar one_cache_scenario_network.node[3].content_store 	hits[3] 	0
scalar one_cache_scenario_network.node[3].content_store 	misses[3] 	38749
scalar one_cache_scenario_network.node[3].content_store 	decision_yes[3] 	0
scalar one_cache_scenario_network.node[3].content_store 	decision_no[3] 	38749
scalar one_cache_scenario_network.node[4].core_layer 	interests[4] 	25528
scalar one_cache_scenario_network.node[4].core_layer 	repo_load[4] 	25528
scalar one_cache_scenario_network.node[4].core_layer 	data[4] 	0
scalar one_cache_scenario_network.node[4].content_store 	p_hit[4] 	0
scalar one_cache_scenario_network.node[4].content_store 	hits[4] 	0
scalar one_cache_scenario_network.node[4].content_store 	misses[4] 	25528
scalar one_cache_scenario_network.node[4].content_store 	decision_yes[4] 	0
scalar one_cache_scenario_network.node[4].content_store 	decision_no[4] 	25528
scalar one_cache_scenario_network.client[0] 	hdistance[0] 	0.71275545846685
scalar one_cache_scenario_network.client[0] 	downloads[0] 	180362
scalar one_cache_scenario_network.client[0] 	avg_time[0] 	0
scalar one_cache_scenario_network.client[0] 	interests_sent[0] 	180362
