version 2
run General-469-20140510-20:24:44-4581
attr D costprobtailsmart0.01
attr F nrr
attr R lru
attr a 1
attr configname General
attr csize 1e3
attr ctlg 1e5
attr datetime 20140510-20:24:44
attr experiment General
attr inifile omnetpp.ini
attr iterationvars "$net=one_cache_scenario_3_links, $rep=9, $priceratiovalue=10, $weights=0.25_0.5_0.25, $a=1, $ctlg=1e5, $F=nrr, $ttl=1000, $D=costprobtailsmart0.01, $xi=1, $R=lru, $csize=1e3"
attr iterationvars2 "$net=one_cache_scenario_3_links, $rep=9, $priceratiovalue=10, $weights=0.25_0.5_0.25, $a=1, $ctlg=1e5, $F=nrr, $ttl=1000, $D=costprobtailsmart0.01, $xi=1, $R=lru, $csize=1e3, $repetition=0"
attr measurement "$net=one_cache_scenario_3_links, $rep=9, $priceratiovalue=10, $weights=0.25_0.5_0.25, $a=1, $ctlg=1e5, $F=nrr, $ttl=1000, $D=costprobtailsmart0.01, $xi=1, $R=lru, $csize=1e3"
attr net one_cache_scenario_3_links
attr network networks.${net=one_cache_scenario_3_links}_network
attr priceratiovalue 10
attr processid 4581
attr rep 9
attr repetition 0
attr replication #0
attr resultdir results
attr runnumber 469
attr seedset 9
attr ttl 1000
attr weights 0.25_0.5_0.25
attr xi 1

scalar . 	a 	1
scalar . 	csize 	1e3
scalar . 	ctlg 	1e5
scalar . 	priceratiovalue 	10
scalar . 	rep 	9
scalar . 	ttl 	1000
scalar . 	xi 	1
scalar one_cache_scenario_3_links_network.content_distribution 	repo-0 	4
scalar one_cache_scenario_3_links_network.content_distribution 	repo-1 	5
scalar one_cache_scenario_3_links_network.content_distribution 	repo-2 	6
scalar one_cache_scenario_3_links_network.content_distribution 	client-0 	0
scalar one_cache_scenario_3_links_network.content_distribution 	repo-0_card 	24838
scalar one_cache_scenario_3_links_network.content_distribution 	repo-1_card 	50177
scalar one_cache_scenario_3_links_network.content_distribution 	repo-2_card 	24985
scalar one_cache_scenario_3_links_network.statistics 	p_hit 	0.24873976099059
scalar one_cache_scenario_3_links_network.statistics 	interests 	51605.857142857
scalar one_cache_scenario_3_links_network.statistics 	data 	25846.285714286
scalar one_cache_scenario_3_links_network.statistics 	hdistance 	1.0033662938048
scalar one_cache_scenario_3_links_network.statistics 	avg_time 	0
scalar one_cache_scenario_3_links_network.statistics 	downloads 	180317
scalar one_cache_scenario_3_links_network.statistics 	total_cost 	219332
scalar one_cache_scenario_3_links_network.statistics 	total_replicas 	100000
scalar one_cache_scenario_3_links_network.statistics 	interests_sent 	180317
scalar one_cache_scenario_3_links_network.node[0].core_layer 	interests[0] 	180317
scalar one_cache_scenario_3_links_network.node[0].core_layer 	data[0] 	90462
scalar one_cache_scenario_3_links_network.node[0].core_layer 	repo_int[0] 	90462
scalar one_cache_scenario_3_links_network.node[0].content_store 	p_hit[0] 	0.4983168530976
scalar one_cache_scenario_3_links_network.node[0].content_store 	hits[0] 	89855
scalar one_cache_scenario_3_links_network.node[0].content_store 	misses[0] 	90462
scalar one_cache_scenario_3_links_network.node[0].content_store 	decision_yes[0] 	18010
scalar one_cache_scenario_3_links_network.node[0].content_store 	decision_no[0] 	72452
scalar one_cache_scenario_3_links_network.node[0].content_store 	decision_ratio[0] 	0.1990891202936
scalar one_cache_scenario_3_links_network.node[0].content_store 	correction_factor[0] 	2.0262145964221e-316
scalar one_cache_scenario_3_links_network.node[0].content_store 	xi[0] 	1
scalar one_cache_scenario_3_links_network.node[1].core_layer 	interests[1] 	25363
scalar one_cache_scenario_3_links_network.node[1].core_layer 	data[1] 	25363
scalar one_cache_scenario_3_links_network.node[1].content_store 	p_hit[1] 	0
scalar one_cache_scenario_3_links_network.node[1].content_store 	hits[1] 	0
scalar one_cache_scenario_3_links_network.node[1].content_store 	misses[1] 	25363
scalar one_cache_scenario_3_links_network.node[1].content_store 	decision_yes[1] 	0
scalar one_cache_scenario_3_links_network.node[1].content_store 	decision_no[1] 	25363
scalar one_cache_scenario_3_links_network.node[1].content_store 	decision_ratio[1] 	0
scalar one_cache_scenario_3_links_network.node[2].core_layer 	interests[2] 	47962
scalar one_cache_scenario_3_links_network.node[2].core_layer 	data[2] 	47962
scalar one_cache_scenario_3_links_network.node[2].content_store 	p_hit[2] 	0
scalar one_cache_scenario_3_links_network.node[2].content_store 	hits[2] 	0
scalar one_cache_scenario_3_links_network.node[2].content_store 	misses[2] 	47962
scalar one_cache_scenario_3_links_network.node[2].content_store 	decision_yes[2] 	0
scalar one_cache_scenario_3_links_network.node[2].content_store 	decision_no[2] 	47962
scalar one_cache_scenario_3_links_network.node[2].content_store 	decision_ratio[2] 	0
scalar one_cache_scenario_3_links_network.node[3].core_layer 	interests[3] 	17137
scalar one_cache_scenario_3_links_network.node[3].core_layer 	data[3] 	17137
scalar one_cache_scenario_3_links_network.node[3].content_store 	p_hit[3] 	0
scalar one_cache_scenario_3_links_network.node[3].content_store 	hits[3] 	0
scalar one_cache_scenario_3_links_network.node[3].content_store 	misses[3] 	17137
scalar one_cache_scenario_3_links_network.node[3].content_store 	decision_yes[3] 	0
scalar one_cache_scenario_3_links_network.node[3].content_store 	decision_no[3] 	17137
scalar one_cache_scenario_3_links_network.node[3].content_store 	decision_ratio[3] 	0
scalar one_cache_scenario_3_links_network.node[4].core_layer 	interests[4] 	25363
scalar one_cache_scenario_3_links_network.node[4].core_layer 	repo_load[4] 	25363
scalar one_cache_scenario_3_links_network.node[4].core_layer 	data[4] 	0
scalar one_cache_scenario_3_links_network.node[4].content_store 	p_hit[4] 	0
scalar one_cache_scenario_3_links_network.node[4].content_store 	hits[4] 	0
scalar one_cache_scenario_3_links_network.node[4].content_store 	misses[4] 	25363
scalar one_cache_scenario_3_links_network.node[4].content_store 	decision_yes[4] 	0
scalar one_cache_scenario_3_links_network.node[4].content_store 	decision_no[4] 	25363
scalar one_cache_scenario_3_links_network.node[4].content_store 	decision_ratio[4] 	0
scalar one_cache_scenario_3_links_network.node[5].core_layer 	interests[5] 	47962
scalar one_cache_scenario_3_links_network.node[5].core_layer 	repo_load[5] 	47962
scalar one_cache_scenario_3_links_network.node[5].core_layer 	data[5] 	0
scalar one_cache_scenario_3_links_network.node[5].content_store 	p_hit[5] 	0
scalar one_cache_scenario_3_links_network.node[5].content_store 	hits[5] 	0
scalar one_cache_scenario_3_links_network.node[5].content_store 	misses[5] 	47962
scalar one_cache_scenario_3_links_network.node[5].content_store 	decision_yes[5] 	0
scalar one_cache_scenario_3_links_network.node[5].content_store 	decision_no[5] 	47962
scalar one_cache_scenario_3_links_network.node[5].content_store 	decision_ratio[5] 	0
scalar one_cache_scenario_3_links_network.node[6].core_layer 	interests[6] 	17137
scalar one_cache_scenario_3_links_network.node[6].core_layer 	repo_load[6] 	17137
scalar one_cache_scenario_3_links_network.node[6].core_layer 	data[6] 	0
scalar one_cache_scenario_3_links_network.node[6].content_store 	p_hit[6] 	0
scalar one_cache_scenario_3_links_network.node[6].content_store 	hits[6] 	0
scalar one_cache_scenario_3_links_network.node[6].content_store 	misses[6] 	17137
scalar one_cache_scenario_3_links_network.node[6].content_store 	decision_yes[6] 	0
scalar one_cache_scenario_3_links_network.node[6].content_store 	decision_no[6] 	17137
scalar one_cache_scenario_3_links_network.node[6].content_store 	decision_ratio[6] 	0
scalar one_cache_scenario_3_links_network.client[0] 	hdistance[0] 	1.0033662938048
scalar one_cache_scenario_3_links_network.client[0] 	downloads[0] 	180317
scalar one_cache_scenario_3_links_network.client[0] 	avg_time[0] 	0
scalar one_cache_scenario_3_links_network.client[0] 	interests_sent[0] 	180317
