version 2
run General-1810-20140421-20:43:07-16593
attr D costprob0.1
attr F nrr
attr R lru
attr a 0.8
attr configname General
attr csize 10
attr ctlg 10^3
attr datetime 20140421-20:43:07
attr experiment General
attr inifile omnetpp.ini
attr iterationvars "$net=simple_scenario, $rep=36, $priceratiovalue=2, $a=0.8, $ctlg=10^3, $F=nrr, $ttl=1000, $D=costprob0.1, $R=lru, $csize=10"
attr iterationvars2 "$net=simple_scenario, $rep=36, $priceratiovalue=2, $a=0.8, $ctlg=10^3, $F=nrr, $ttl=1000, $D=costprob0.1, $R=lru, $csize=10, $repetition=0"
attr measurement "$net=simple_scenario, $rep=36, $priceratiovalue=2, $a=0.8, $ctlg=10^3, $F=nrr, $ttl=1000, $D=costprob0.1, $R=lru, $csize=10"
attr net simple_scenario
attr network networks.${net=simple_scenario}_network
attr priceratiovalue 2
attr processid 16593
attr rep 36
attr repetition 0
attr replication #0
attr resultdir results
attr runnumber 1810
attr seedset 36
attr ttl 1000

scalar . 	a 	0.8
scalar . 	csize 	10
scalar . 	priceratiovalue 	2
scalar . 	rep 	36
scalar . 	ttl 	1000
scalar simple_scenario_network.content_distribution 	repo-0 	3
scalar simple_scenario_network.content_distribution 	repo-1 	4
scalar simple_scenario_network.content_distribution 	client-0 	0
scalar simple_scenario_network.content_distribution 	repo-0_card 	500
scalar simple_scenario_network.content_distribution 	repo-1_card 	500
scalar simple_scenario_network.statistics 	p_hit 	0.093753571896165
scalar simple_scenario_network.statistics 	interests 	96237.4
scalar simple_scenario_network.statistics 	data 	60148.8
scalar simple_scenario_network.statistics 	hdistance 	2.4166856015472
scalar simple_scenario_network.statistics 	avg_time 	0.001998115229
scalar simple_scenario_network.statistics 	downloads 	180443
scalar simple_scenario_network.statistics 	total_cost 	67260
scalar simple_scenario_network.node[0].core_layer 	interests[0] 	180443
scalar simple_scenario_network.node[0].core_layer 	data[0] 	165414
scalar simple_scenario_network.node[0].core_layer 	repo_int[0] 	135330
scalar simple_scenario_network.node[0].content_store 	p_hit[0] 	0.08328945982942
scalar simple_scenario_network.node[0].content_store 	hits[0] 	15029
scalar simple_scenario_network.node[0].content_store 	misses[0] 	165414
scalar simple_scenario_network.node[1].core_layer 	interests[1] 	88730
scalar simple_scenario_network.node[1].core_layer 	data[1] 	68880
scalar simple_scenario_network.node[1].content_store 	p_hit[1] 	0.22371238588978
scalar simple_scenario_network.node[1].content_store 	hits[1] 	19850
scalar simple_scenario_network.node[1].content_store 	misses[1] 	68880
scalar simple_scenario_network.node[2].core_layer 	interests[2] 	76684
scalar simple_scenario_network.node[2].core_layer 	data[2] 	66450
scalar simple_scenario_network.node[2].content_store 	p_hit[2] 	0.13345678368369
scalar simple_scenario_network.node[2].content_store 	hits[2] 	10234
scalar simple_scenario_network.node[2].content_store 	misses[2] 	66450
scalar simple_scenario_network.node[3].core_layer 	interests[3] 	68880
scalar simple_scenario_network.node[3].core_layer 	repo_load[3] 	68880
scalar simple_scenario_network.node[3].core_layer 	data[3] 	0
scalar simple_scenario_network.node[3].content_store 	p_hit[3] 	0
scalar simple_scenario_network.node[3].content_store 	hits[3] 	0
scalar simple_scenario_network.node[3].content_store 	misses[3] 	68880
scalar simple_scenario_network.node[4].core_layer 	interests[4] 	66450
scalar simple_scenario_network.node[4].core_layer 	repo_load[4] 	66450
scalar simple_scenario_network.node[4].core_layer 	data[4] 	0
scalar simple_scenario_network.node[4].content_store 	p_hit[4] 	0
scalar simple_scenario_network.node[4].content_store 	hits[4] 	0
scalar simple_scenario_network.node[4].content_store 	misses[4] 	66450
scalar simple_scenario_network.client[0] 	hdistance[0] 	2.4166856015472
scalar simple_scenario_network.client[0] 	downloads[0] 	180443
scalar simple_scenario_network.client[0] 	avg_time[0] 	0.001998115229
