version 2
run General-114-20140502-10:27:43-13458
attr D costprob0.05
attr F nrr
attr R lru
attr a 0.8
attr configname General
attr csize 1e3
attr ctlg 1e5
attr datetime 20140502-10:27:43
attr experiment General
attr inifile omnetpp.ini
attr iterationvars "$net=three_caches_scenario_3_links, $rep=1, $priceratiovalue=10, $weights=0.333_0.333_0.334, $a=0.8, $ctlg=1e5, $F=nrr, $ttl=1000, $D=costprob0.05, $xi=1, $R=lru, $csize=1e3"
attr iterationvars2 "$net=three_caches_scenario_3_links, $rep=1, $priceratiovalue=10, $weights=0.333_0.333_0.334, $a=0.8, $ctlg=1e5, $F=nrr, $ttl=1000, $D=costprob0.05, $xi=1, $R=lru, $csize=1e3, $repetition=0"
attr measurement "$net=three_caches_scenario_3_links, $rep=1, $priceratiovalue=10, $weights=0.333_0.333_0.334, $a=0.8, $ctlg=1e5, $F=nrr, $ttl=1000, $D=costprob0.05, $xi=1, $R=lru, $csize=1e3"
attr net three_caches_scenario_3_links
attr network networks.${net=three_caches_scenario_3_links}_network
attr priceratiovalue 10
attr processid 13458
attr rep 1
attr repetition 0
attr replication #0
attr resultdir results
attr runnumber 114
attr seedset 1
attr ttl 1000
attr weights 0.333_0.333_0.334
attr xi 1

scalar . 	a 	0.8
scalar . 	csize 	1e3
scalar . 	ctlg 	1e5
scalar . 	priceratiovalue 	10
scalar . 	rep 	1
scalar . 	ttl 	1000
scalar . 	xi 	1
scalar three_caches_scenario_3_links_network.content_distribution 	repo-0 	4
scalar three_caches_scenario_3_links_network.content_distribution 	repo-1 	5
scalar three_caches_scenario_3_links_network.content_distribution 	repo-2 	6
scalar three_caches_scenario_3_links_network.content_distribution 	client-0 	0
scalar three_caches_scenario_3_links_network.content_distribution 	repo-0_card 	33352
scalar three_caches_scenario_3_links_network.content_distribution 	repo-1_card 	33263
scalar three_caches_scenario_3_links_network.content_distribution 	repo-2_card 	33385
scalar three_caches_scenario_3_links_network.statistics 	p_hit 	0.064030523335799
scalar three_caches_scenario_3_links_network.statistics 	interests 	70091.571428571
scalar three_caches_scenario_3_links_network.statistics 	data 	44452.285714286
scalar three_caches_scenario_3_links_network.statistics 	hdistance 	2.2197520546037
scalar three_caches_scenario_3_links_network.statistics 	avg_time 	0
scalar three_caches_scenario_3_links_network.statistics 	downloads 	179475
scalar three_caches_scenario_3_links_network.statistics 	total_cost 	474476
scalar three_caches_scenario_3_links_network.statistics 	total_replicas 	100000
scalar three_caches_scenario_3_links_network.statistics 	interests_sent 	179475
scalar three_caches_scenario_3_links_network.node[0].core_layer 	interests[0] 	179475
scalar three_caches_scenario_3_links_network.node[0].core_layer 	data[0] 	163107
scalar three_caches_scenario_3_links_network.node[0].core_layer 	repo_int[0] 	148059
scalar three_caches_scenario_3_links_network.node[0].content_store 	p_hit[0] 	0.091199331383201
scalar three_caches_scenario_3_links_network.node[0].content_store 	hits[0] 	16368
scalar three_caches_scenario_3_links_network.node[0].content_store 	misses[0] 	163107
scalar three_caches_scenario_3_links_network.node[0].content_store 	decision_yes[0] 	6387
scalar three_caches_scenario_3_links_network.node[0].content_store 	decision_no[0] 	156720
scalar three_caches_scenario_3_links_network.node[1].core_layer 	interests[1] 	60835
scalar three_caches_scenario_3_links_network.node[1].core_layer 	data[1] 	60835
scalar three_caches_scenario_3_links_network.node[1].content_store 	p_hit[1] 	0
scalar three_caches_scenario_3_links_network.node[1].content_store 	hits[1] 	0
scalar three_caches_scenario_3_links_network.node[1].content_store 	misses[1] 	60835
scalar three_caches_scenario_3_links_network.node[1].content_store 	decision_yes[1] 	0
scalar three_caches_scenario_3_links_network.node[1].content_store 	decision_no[1] 	60835
scalar three_caches_scenario_3_links_network.node[2].core_layer 	interests[2] 	51858
scalar three_caches_scenario_3_links_network.node[2].core_layer 	data[2] 	44196
scalar three_caches_scenario_3_links_network.node[2].content_store 	p_hit[2] 	0.14774962397316
scalar three_caches_scenario_3_links_network.node[2].content_store 	hits[2] 	7662
scalar three_caches_scenario_3_links_network.node[2].content_store 	misses[2] 	44196
scalar three_caches_scenario_3_links_network.node[2].content_store 	decision_yes[2] 	647
scalar three_caches_scenario_3_links_network.node[2].content_store 	decision_no[2] 	43549
scalar three_caches_scenario_3_links_network.node[3].core_layer 	interests[3] 	50414
scalar three_caches_scenario_3_links_network.node[3].core_layer 	data[3] 	43028
scalar three_caches_scenario_3_links_network.node[3].content_store 	p_hit[3] 	0.14650692268021
scalar three_caches_scenario_3_links_network.node[3].content_store 	hits[3] 	7386
scalar three_caches_scenario_3_links_network.node[3].content_store 	misses[3] 	43028
scalar three_caches_scenario_3_links_network.node[3].content_store 	decision_yes[3] 	5911
scalar three_caches_scenario_3_links_network.node[3].content_store 	decision_no[3] 	37117
scalar three_caches_scenario_3_links_network.node[4].core_layer 	interests[4] 	60835
scalar three_caches_scenario_3_links_network.node[4].core_layer 	repo_load[4] 	60835
scalar three_caches_scenario_3_links_network.node[4].core_layer 	data[4] 	0
scalar three_caches_scenario_3_links_network.node[4].content_store 	p_hit[4] 	0
scalar three_caches_scenario_3_links_network.node[4].content_store 	hits[4] 	0
scalar three_caches_scenario_3_links_network.node[4].content_store 	misses[4] 	60835
scalar three_caches_scenario_3_links_network.node[4].content_store 	decision_yes[4] 	0
scalar three_caches_scenario_3_links_network.node[4].content_store 	decision_no[4] 	60835
scalar three_caches_scenario_3_links_network.node[5].core_layer 	interests[5] 	44196
scalar three_caches_scenario_3_links_network.node[5].core_layer 	repo_load[5] 	44196
scalar three_caches_scenario_3_links_network.node[5].core_layer 	data[5] 	0
scalar three_caches_scenario_3_links_network.node[5].content_store 	p_hit[5] 	0
scalar three_caches_scenario_3_links_network.node[5].content_store 	hits[5] 	0
scalar three_caches_scenario_3_links_network.node[5].content_store 	misses[5] 	44196
scalar three_caches_scenario_3_links_network.node[5].content_store 	decision_yes[5] 	0
scalar three_caches_scenario_3_links_network.node[5].content_store 	decision_no[5] 	44196
scalar three_caches_scenario_3_links_network.node[6].core_layer 	interests[6] 	43028
scalar three_caches_scenario_3_links_network.node[6].core_layer 	repo_load[6] 	43028
scalar three_caches_scenario_3_links_network.node[6].core_layer 	data[6] 	0
scalar three_caches_scenario_3_links_network.node[6].content_store 	p_hit[6] 	0
scalar three_caches_scenario_3_links_network.node[6].content_store 	hits[6] 	0
scalar three_caches_scenario_3_links_network.node[6].content_store 	misses[6] 	43028
scalar three_caches_scenario_3_links_network.node[6].content_store 	decision_yes[6] 	0
scalar three_caches_scenario_3_links_network.node[6].content_store 	decision_no[6] 	43028
scalar three_caches_scenario_3_links_network.client[0] 	hdistance[0] 	2.2197520546037
scalar three_caches_scenario_3_links_network.client[0] 	downloads[0] 	179475
scalar three_caches_scenario_3_links_network.client[0] 	avg_time[0] 	0
scalar three_caches_scenario_3_links_network.client[0] 	interests_sent[0] 	179475
