version 2
run General-2-20140623-17:30:40-5468
attr D costprobprodcorr0.01
attr F nrr
attr R lru
attr a 1
attr configname General
attr csize 1e3
attr ctlg 1e5
attr datetime 20140623-17:30:40
attr experiment General
attr inifile omnetpp.ini
attr iterationvars "$net=abilene_cost, $rep=1, $priceratiovalue=10, $weights=0.333_0.333_0.334, $lambda=1, $a=1, $ctlg=1e5, $F=nrr, $ttl=1000, $D=costprobprodcorr0.01, $xi=1, $R=lru, $csize=1e3, $pricebits=0, $mytime=1800"
attr iterationvars2 "$net=abilene_cost, $rep=1, $priceratiovalue=10, $weights=0.333_0.333_0.334, $lambda=1, $a=1, $ctlg=1e5, $F=nrr, $ttl=1000, $D=costprobprodcorr0.01, $xi=1, $R=lru, $csize=1e3, $pricebits=0, $mytime=1800, $repetition=0"
attr lambda 1
attr measurement "$net=abilene_cost, $rep=1, $priceratiovalue=10, $weights=0.333_0.333_0.334, $lambda=1, $a=1, $ctlg=1e5, $F=nrr, $ttl=1000, $D=costprobprodcorr0.01, $xi=1, $R=lru, $csize=1e3, $pricebits=0, $mytime=1800"
attr mytime 1800
attr net abilene_cost
attr network networks.${net=abilene_cost}_network
attr pricebits 0
attr priceratiovalue 10
attr processid 5468
attr rep 1
attr repetition 0
attr replication #0
attr resultdir results
attr runnumber 2
attr seedset 1
attr ttl 1000
attr weights 0.333_0.333_0.334
attr xi 1

scalar . 	a 	1
scalar . 	csize 	1e3
scalar . 	ctlg 	1e5
scalar . 	lambda 	1
scalar . 	mytime 	1800
scalar . 	pricebits 	0
scalar . 	priceratiovalue 	10
scalar . 	rep 	1
scalar . 	ttl 	1000
scalar . 	xi 	1
scalar abilene_cost_network.content_distribution 	repo-0 	11
scalar abilene_cost_network.content_distribution 	repo-1 	12
scalar abilene_cost_network.content_distribution 	repo-2 	13
scalar abilene_cost_network.content_distribution 	client-0 	5
scalar abilene_cost_network.content_distribution 	client-1 	0
scalar abilene_cost_network.content_distribution 	client-2 	9
scalar abilene_cost_network.content_distribution 	repo-0_card 	33396
scalar abilene_cost_network.content_distribution 	repo-1_card 	33039
scalar abilene_cost_network.content_distribution 	repo-2_card 	33565
scalar abilene_cost_network.statistics 	repo_popularity[0] 	0.28686251265602
scalar abilene_cost_network.statistics 	repo_popularity[1] 	0.2886063426465
scalar abilene_cost_network.statistics 	repo_popularity[2] 	0.42453114469748
scalar abilene_cost_network.statistics 	stabilization_time 	36120
scalar abilene_cost_network.node[1].face$o[4].channel 	price[1] 	0
scalar abilene_cost_network.node[1].face$o[4].channel 	represented_price[1] 	0
scalar abilene_cost_network.node[7].face$o[4].channel 	price[7] 	0
scalar abilene_cost_network.node[7].face$o[4].channel 	represented_price[7] 	0
scalar abilene_cost_network.node[10].face$o[4].channel 	price[10] 	0
scalar abilene_cost_network.node[10].face$o[4].channel 	represented_price[10] 	0
scalar abilene_cost_network.node[11].face$o[1].channel 	price[11] 	0
scalar abilene_cost_network.node[11].face$o[1].channel 	represented_price[11] 	0
scalar abilene_cost_network.node[12].face$o[1].channel 	price[12] 	1
scalar abilene_cost_network.node[12].face$o[1].channel 	represented_price[12] 	1
scalar abilene_cost_network.node[13].face$o[1].channel 	price[13] 	10
scalar abilene_cost_network.node[13].face$o[1].channel 	represented_price[13] 	10
scalar abilene_cost_network.statistics 	p_hit 	0.1005906406179
scalar abilene_cost_network.statistics 	interests 	1572.1428571429
scalar abilene_cost_network.statistics 	data 	1179.1428571429
scalar abilene_cost_network.statistics 	hdistance 	3.5679676322358
scalar abilene_cost_network.statistics 	avg_time 	5.8951e-08
scalar abilene_cost_network.statistics 	downloads 	5502
scalar abilene_cost_network.statistics 	total_cost 	8629
scalar abilene_cost_network.statistics 	total_replicas 	100000
scalar abilene_cost_network.statistics 	inner_hit 	0.40239912758997
scalar abilene_cost_network.statistics 	interests_sent 	5502
scalar abilene_cost_network.node[0].core_layer 	interests[0] 	1958
scalar abilene_cost_network.node[0].core_layer 	data[0] 	1760
scalar abilene_cost_network.node[0].core_layer 	repo_int[0] 	3288
scalar abilene_cost_network.node[0].content_store 	p_hit[0] 	0.10112359550562
scalar abilene_cost_network.node[0].content_store 	hits[0] 	198
scalar abilene_cost_network.node[0].content_store 	misses[0] 	1760
scalar abilene_cost_network.node[0].content_store 	decision_yes[0] 	8
scalar abilene_cost_network.node[0].content_store 	decision_no[0] 	1752
scalar abilene_cost_network.node[0].content_store 	decision_ratio[0] 	0.0045454545454545
scalar abilene_cost_network.node[0].content_store 	correction_factor[0] 	0.0027225701061802
scalar abilene_cost_network.node[0].content_store 	xi[0] 	1
scalar abilene_cost_network.node[1].core_layer 	interests[1] 	2464
scalar abilene_cost_network.node[1].core_layer 	data[1] 	1986
scalar abilene_cost_network.node[1].content_store 	p_hit[1] 	0.19399350649351
scalar abilene_cost_network.node[1].content_store 	hits[1] 	478
scalar abilene_cost_network.node[1].content_store 	misses[1] 	1986
scalar abilene_cost_network.node[1].content_store 	decision_yes[1] 	24
scalar abilene_cost_network.node[1].content_store 	decision_no[1] 	1962
scalar abilene_cost_network.node[1].content_store 	decision_ratio[1] 	0.012084592145015
scalar abilene_cost_network.node[1].content_store 	correction_factor[1] 	0.0027225701061802
scalar abilene_cost_network.node[1].content_store 	xi[1] 	1
scalar abilene_cost_network.node[2].core_layer 	interests[2] 	1830
scalar abilene_cost_network.node[2].core_layer 	data[2] 	1740
scalar abilene_cost_network.node[2].content_store 	p_hit[2] 	0.049180327868852
scalar abilene_cost_network.node[2].content_store 	hits[2] 	90
scalar abilene_cost_network.node[2].content_store 	misses[2] 	1740
scalar abilene_cost_network.node[2].content_store 	decision_yes[2] 	10
scalar abilene_cost_network.node[2].content_store 	decision_no[2] 	1730
scalar abilene_cost_network.node[2].content_store 	decision_ratio[2] 	0.0057471264367816
scalar abilene_cost_network.node[2].content_store 	correction_factor[2] 	0.0027225701061802
scalar abilene_cost_network.node[2].content_store 	xi[2] 	1
scalar abilene_cost_network.node[3].core_layer 	interests[3] 	1850
scalar abilene_cost_network.node[3].core_layer 	data[3] 	1580
scalar abilene_cost_network.node[3].content_store 	p_hit[3] 	0.14594594594595
scalar abilene_cost_network.node[3].content_store 	hits[3] 	270
scalar abilene_cost_network.node[3].content_store 	misses[3] 	1580
scalar abilene_cost_network.node[3].content_store 	decision_yes[3] 	11
scalar abilene_cost_network.node[3].content_store 	decision_no[3] 	1569
scalar abilene_cost_network.node[3].content_store 	decision_ratio[3] 	0.0069620253164557
scalar abilene_cost_network.node[3].content_store 	correction_factor[3] 	0.0027225701061802
scalar abilene_cost_network.node[3].content_store 	xi[3] 	1
scalar abilene_cost_network.node[4].core_layer 	interests[4] 	1305
scalar abilene_cost_network.node[4].core_layer 	data[4] 	1258
scalar abilene_cost_network.node[4].content_store 	p_hit[4] 	0.036015325670498
scalar abilene_cost_network.node[4].content_store 	hits[4] 	47
scalar abilene_cost_network.node[4].content_store 	misses[4] 	1258
scalar abilene_cost_network.node[4].content_store 	decision_yes[4] 	6
scalar abilene_cost_network.node[4].content_store 	decision_no[4] 	1252
scalar abilene_cost_network.node[4].content_store 	decision_ratio[4] 	0.0047694753577107
scalar abilene_cost_network.node[4].content_store 	correction_factor[4] 	0.0027225701061802
scalar abilene_cost_network.node[4].content_store 	xi[4] 	1
scalar abilene_cost_network.node[5].core_layer 	interests[5] 	1963
scalar abilene_cost_network.node[5].core_layer 	data[5] 	1871
scalar abilene_cost_network.node[5].content_store 	p_hit[5] 	0.046867040244524
scalar abilene_cost_network.node[5].content_store 	hits[5] 	92
scalar abilene_cost_network.node[5].content_store 	misses[5] 	1871
scalar abilene_cost_network.node[5].content_store 	decision_yes[5] 	8
scalar abilene_cost_network.node[5].content_store 	decision_no[5] 	1863
scalar abilene_cost_network.node[5].content_store 	decision_ratio[5] 	0.0042757883484768
scalar abilene_cost_network.node[5].content_store 	correction_factor[5] 	0.0027225701061802
scalar abilene_cost_network.node[5].content_store 	xi[5] 	1
scalar abilene_cost_network.node[6].core_layer 	interests[6] 	637
scalar abilene_cost_network.node[6].core_layer 	data[6] 	624
scalar abilene_cost_network.node[6].content_store 	p_hit[6] 	0.020408163265306
scalar abilene_cost_network.node[6].content_store 	hits[6] 	13
scalar abilene_cost_network.node[6].content_store 	misses[6] 	624
scalar abilene_cost_network.node[6].content_store 	decision_yes[6] 	0
scalar abilene_cost_network.node[6].content_store 	decision_no[6] 	624
scalar abilene_cost_network.node[6].content_store 	decision_ratio[6] 	0
scalar abilene_cost_network.node[6].content_store 	correction_factor[6] 	0.0027225701061802
scalar abilene_cost_network.node[6].content_store 	xi[6] 	1
scalar abilene_cost_network.node[7].core_layer 	interests[7] 	1364
scalar abilene_cost_network.node[7].core_layer 	data[7] 	1198
scalar abilene_cost_network.node[7].content_store 	p_hit[7] 	0.1217008797654
scalar abilene_cost_network.node[7].content_store 	hits[7] 	166
scalar abilene_cost_network.node[7].content_store 	misses[7] 	1198
scalar abilene_cost_network.node[7].content_store 	decision_yes[7] 	3
scalar abilene_cost_network.node[7].content_store 	decision_no[7] 	1195
scalar abilene_cost_network.node[7].content_store 	decision_ratio[7] 	0.0025041736227045
scalar abilene_cost_network.node[7].content_store 	correction_factor[7] 	0.0027225701061802
scalar abilene_cost_network.node[7].content_store 	xi[7] 	1
scalar abilene_cost_network.node[8].core_layer 	interests[8] 	730
scalar abilene_cost_network.node[8].core_layer 	data[8] 	697
scalar abilene_cost_network.node[8].content_store 	p_hit[8] 	0.045205479452055
scalar abilene_cost_network.node[8].content_store 	hits[8] 	33
scalar abilene_cost_network.node[8].content_store 	misses[8] 	697
scalar abilene_cost_network.node[8].content_store 	decision_yes[8] 	1
scalar abilene_cost_network.node[8].content_store 	decision_no[8] 	696
scalar abilene_cost_network.node[8].content_store 	decision_ratio[8] 	0.0014347202295552
scalar abilene_cost_network.node[8].content_store 	correction_factor[8] 	0.0027225701061802
scalar abilene_cost_network.node[8].content_store 	xi[8] 	1
scalar abilene_cost_network.node[9].core_layer 	interests[9] 	2157
scalar abilene_cost_network.node[9].core_layer 	data[9] 	1584
scalar abilene_cost_network.node[9].content_store 	p_hit[9] 	0.26564673157163
scalar abilene_cost_network.node[9].content_store 	hits[9] 	573
scalar abilene_cost_network.node[9].content_store 	misses[9] 	1584
scalar abilene_cost_network.node[9].content_store 	decision_yes[9] 	5
scalar abilene_cost_network.node[9].content_store 	decision_no[9] 	1579
scalar abilene_cost_network.node[9].content_store 	decision_ratio[9] 	0.0031565656565657
scalar abilene_cost_network.node[9].content_store 	correction_factor[9] 	0.0027225701061802
scalar abilene_cost_network.node[9].content_store 	xi[9] 	1
scalar abilene_cost_network.node[10].core_layer 	interests[10] 	2464
scalar abilene_cost_network.node[10].core_layer 	data[10] 	2210
scalar abilene_cost_network.node[10].content_store 	p_hit[10] 	0.10308441558442
scalar abilene_cost_network.node[10].content_store 	hits[10] 	254
scalar abilene_cost_network.node[10].content_store 	misses[10] 	2210
scalar abilene_cost_network.node[10].content_store 	decision_yes[10] 	5
scalar abilene_cost_network.node[10].content_store 	decision_no[10] 	2205
scalar abilene_cost_network.node[10].content_store 	decision_ratio[10] 	0.002262443438914
scalar abilene_cost_network.node[10].content_store 	correction_factor[10] 	0.0027225701061802
scalar abilene_cost_network.node[10].content_store 	xi[10] 	1
scalar abilene_cost_network.node[11].core_layer 	interests[11] 	1562
scalar abilene_cost_network.node[11].core_layer 	repo_load[11] 	1562
scalar abilene_cost_network.node[11].core_layer 	data[11] 	0
scalar abilene_cost_network.node[11].content_store 	p_hit[11] 	0
scalar abilene_cost_network.node[11].content_store 	hits[11] 	0
scalar abilene_cost_network.node[11].content_store 	misses[11] 	1562
scalar abilene_cost_network.node[11].content_store 	decision_yes[11] 	0
scalar abilene_cost_network.node[11].content_store 	decision_no[11] 	1562
scalar abilene_cost_network.node[11].content_store 	decision_ratio[11] 	0
scalar abilene_cost_network.node[12].core_layer 	interests[12] 	959
scalar abilene_cost_network.node[12].core_layer 	repo_load[12] 	959
scalar abilene_cost_network.node[12].core_layer 	data[12] 	0
scalar abilene_cost_network.node[12].content_store 	p_hit[12] 	0
scalar abilene_cost_network.node[12].content_store 	hits[12] 	0
scalar abilene_cost_network.node[12].content_store 	misses[12] 	959
scalar abilene_cost_network.node[12].content_store 	decision_yes[12] 	0
scalar abilene_cost_network.node[12].content_store 	decision_no[12] 	959
scalar abilene_cost_network.node[12].content_store 	decision_ratio[12] 	0
scalar abilene_cost_network.node[13].core_layer 	interests[13] 	767
scalar abilene_cost_network.node[13].core_layer 	repo_load[13] 	767
scalar abilene_cost_network.node[13].core_layer 	data[13] 	0
scalar abilene_cost_network.node[13].content_store 	p_hit[13] 	0
scalar abilene_cost_network.node[13].content_store 	hits[13] 	0
scalar abilene_cost_network.node[13].content_store 	misses[13] 	767
scalar abilene_cost_network.node[13].content_store 	decision_yes[13] 	0
scalar abilene_cost_network.node[13].content_store 	decision_no[13] 	767
scalar abilene_cost_network.node[13].content_store 	decision_ratio[13] 	0
scalar abilene_cost_network.client[0] 	hdistance[0] 	3.1088026243849
scalar abilene_cost_network.client[0] 	downloads[0] 	1829
scalar abilene_cost_network.client[0] 	avg_time[0] 	4.963e-08
scalar abilene_cost_network.client[0] 	interests_sent[0] 	1829
scalar abilene_cost_network.client[5] 	hdistance[5] 	4.8968586387435
scalar abilene_cost_network.client[5] 	downloads[5] 	1910
scalar abilene_cost_network.client[5] 	avg_time[5] 	8.5283e-08
scalar abilene_cost_network.client[5] 	interests_sent[5] 	1910
scalar abilene_cost_network.client[9] 	hdistance[9] 	2.6982416335791
scalar abilene_cost_network.client[9] 	downloads[9] 	1763
scalar abilene_cost_network.client[9] 	avg_time[9] 	4.1942e-08
scalar abilene_cost_network.client[9] 	interests_sent[9] 	1763
