version 2
run General-1-20150519-11:38:05-23084
attr D two_lru
attr F nrr
attr R lru
attr a 1
attr configname General
attr datetime 20150519-11:38:05
attr experiment General
attr inifile omnetpp.ini
attr iterationvars "$net=geant, $rep=0, $a=1, $F=nrr, $ttl=1000, $D=two_lru, $R=lru"
attr iterationvars2 "$net=geant, $rep=0, $a=1, $F=nrr, $ttl=1000, $D=two_lru, $R=lru, $repetition=0"
attr measurement "$net=geant, $rep=0, $a=1, $F=nrr, $ttl=1000, $D=two_lru, $R=lru"
attr net geant
attr network networks.${net=geant}_network
attr processid 23084
attr rep 0
attr repetition 0
attr replication #0
attr resultdir results
attr runnumber 1
attr seedset 0
attr ttl 1000

scalar . 	a 	1
scalar . 	rep 	0
scalar . 	ttl 	1000
scalar geant_network.content_distribution 	repo-0 	5
scalar geant_network.content_distribution 	repo-1 	11
scalar geant_network.content_distribution 	repo-2 	12
scalar geant_network.content_distribution 	repo-3 	8
scalar geant_network.content_distribution 	repo-4 	9
scalar geant_network.content_distribution 	repo-5 	15
scalar geant_network.content_distribution 	repo-6 	0
scalar geant_network.content_distribution 	repo-7 	16
scalar geant_network.content_distribution 	repo-8 	1
scalar geant_network.content_distribution 	repo-9 	7
scalar geant_network.content_distribution 	repo-10 	13
scalar geant_network.content_distribution 	client-0 	6
scalar geant_network.content_distribution 	client-1 	18
scalar geant_network.content_distribution 	client-2 	20
scalar geant_network.content_distribution 	client-3 	5
scalar geant_network.content_distribution 	client-4 	11
scalar geant_network.content_distribution 	client-5 	10
scalar geant_network.content_distribution 	client-6 	14
scalar geant_network.content_distribution 	client-7 	4
scalar geant_network.content_distribution 	client-8 	9
scalar geant_network.content_distribution 	client-9 	17
scalar geant_network.content_distribution 	client-10 	0
scalar geant_network.content_distribution 	repo-0_card 	930
scalar geant_network.content_distribution 	repo-0_price 	0
scalar geant_network.content_distribution 	repo-1_card 	837
scalar geant_network.content_distribution 	repo-1_price 	0
scalar geant_network.content_distribution 	repo-2_card 	907
scalar geant_network.content_distribution 	repo-2_price 	0
scalar geant_network.content_distribution 	repo-3_card 	917
scalar geant_network.content_distribution 	repo-3_price 	0
scalar geant_network.content_distribution 	repo-4_card 	886
scalar geant_network.content_distribution 	repo-4_price 	0
scalar geant_network.content_distribution 	repo-5_card 	971
scalar geant_network.content_distribution 	repo-5_price 	0
scalar geant_network.content_distribution 	repo-6_card 	916
scalar geant_network.content_distribution 	repo-6_price 	0
scalar geant_network.content_distribution 	repo-7_card 	937
scalar geant_network.content_distribution 	repo-7_price 	0
scalar geant_network.content_distribution 	repo-8_card 	889
scalar geant_network.content_distribution 	repo-8_price 	0
scalar geant_network.content_distribution 	repo-9_card 	894
scalar geant_network.content_distribution 	repo-9_price 	0
scalar geant_network.content_distribution 	repo-10_card 	916
scalar geant_network.content_distribution 	repo-10_price 	0
scalar geant_network.statistics 	stabilization_time 	36120
scalar geant_network.statistics 	p_hit 	0.2469660450759
scalar geant_network.statistics 	interests 	2149.9090909091
scalar geant_network.statistics 	data 	1257.6363636364
scalar geant_network.statistics 	hdistance 	1.8141199309531
scalar geant_network.statistics 	avg_time 	0.01313086255
scalar geant_network.statistics 	downloads 	19628
scalar geant_network.statistics 	total_cost 	0
scalar geant_network.statistics 	total_replicas 	10000
scalar geant_network.statistics 	inner_hit 	0.59517016507031
scalar geant_network.statistics 	interests_sent 	19629
scalar geant_network.node[0].core_layer 	interests[0] 	2583
scalar geant_network.node[0].core_layer 	repo_load[0] 	797
scalar geant_network.node[0].core_layer 	data[0] 	1140
scalar geant_network.node[0].core_layer 	repo_int[0] 	7946
scalar geant_network.node[0].content_store 	p_hit[0] 	0.25009678668215
scalar geant_network.node[0].content_store 	hits[0] 	646
scalar geant_network.node[0].content_store 	misses[0] 	1937
scalar geant_network.node[0].content_store 	decision_yes[0] 	1937
scalar geant_network.node[0].content_store 	decision_no[0] 	0
scalar geant_network.node[0].content_store 	decision_ratio[0] 	1
scalar geant_network.node[1].core_layer 	interests[1] 	1885
scalar geant_network.node[1].core_layer 	repo_load[1] 	700
scalar geant_network.node[1].core_layer 	data[1] 	1032
scalar geant_network.node[1].content_store 	p_hit[1] 	0.081167108753316
scalar geant_network.node[1].content_store 	hits[1] 	153
scalar geant_network.node[1].content_store 	misses[1] 	1732
scalar geant_network.node[1].content_store 	decision_yes[1] 	1732
scalar geant_network.node[1].content_store 	decision_no[1] 	0
scalar geant_network.node[1].content_store 	decision_ratio[1] 	1
scalar geant_network.node[2].core_layer 	interests[2] 	0
scalar geant_network.node[2].core_layer 	data[2] 	0
scalar geant_network.node[2].content_store 	p_hit[2] 	-nan
scalar geant_network.node[2].content_store 	hits[2] 	0
scalar geant_network.node[2].content_store 	misses[2] 	0
scalar geant_network.node[2].content_store 	decision_yes[2] 	0
scalar geant_network.node[2].content_store 	decision_no[2] 	0
scalar geant_network.node[2].content_store 	decision_ratio[2] 	0
scalar geant_network.node[3].core_layer 	interests[3] 	2646
scalar geant_network.node[3].core_layer 	data[3] 	2444
scalar geant_network.node[3].content_store 	p_hit[3] 	0.076341647770219
scalar geant_network.node[3].content_store 	hits[3] 	202
scalar geant_network.node[3].content_store 	misses[3] 	2444
scalar geant_network.node[3].content_store 	decision_yes[3] 	2444
scalar geant_network.node[3].content_store 	decision_no[3] 	0
scalar geant_network.node[3].content_store 	decision_ratio[3] 	1
scalar geant_network.node[4].core_layer 	interests[4] 	3447
scalar geant_network.node[4].core_layer 	data[4] 	2655
scalar geant_network.node[4].content_store 	p_hit[4] 	0.22976501305483
scalar geant_network.node[4].content_store 	hits[4] 	792
scalar geant_network.node[4].content_store 	misses[4] 	2655
scalar geant_network.node[4].content_store 	decision_yes[4] 	2655
scalar geant_network.node[4].content_store 	decision_no[4] 	0
scalar geant_network.node[4].content_store 	decision_ratio[4] 	1
scalar geant_network.node[5].core_layer 	interests[5] 	3348
scalar geant_network.node[5].core_layer 	repo_load[5] 	856
scalar geant_network.node[5].core_layer 	data[5] 	1673
scalar geant_network.node[5].content_store 	p_hit[5] 	0.24462365591398
scalar geant_network.node[5].content_store 	hits[5] 	819
scalar geant_network.node[5].content_store 	misses[5] 	2529
scalar geant_network.node[5].content_store 	decision_yes[5] 	2529
scalar geant_network.node[5].content_store 	decision_no[5] 	0
scalar geant_network.node[5].content_store 	decision_ratio[5] 	1
scalar geant_network.node[6].core_layer 	interests[6] 	2193
scalar geant_network.node[6].core_layer 	data[6] 	1268
scalar geant_network.node[6].content_store 	p_hit[6] 	0.42179662562699
scalar geant_network.node[6].content_store 	hits[6] 	925
scalar geant_network.node[6].content_store 	misses[6] 	1268
scalar geant_network.node[6].content_store 	decision_yes[6] 	1268
scalar geant_network.node[6].content_store 	decision_no[6] 	0
scalar geant_network.node[6].content_store 	decision_ratio[6] 	1
scalar geant_network.node[7].core_layer 	interests[7] 	1870
scalar geant_network.node[7].core_layer 	repo_load[7] 	677
scalar geant_network.node[7].core_layer 	data[7] 	1032
scalar geant_network.node[7].content_store 	p_hit[7] 	0.086096256684492
scalar geant_network.node[7].content_store 	hits[7] 	161
scalar geant_network.node[7].content_store 	misses[7] 	1709
scalar geant_network.node[7].content_store 	decision_yes[7] 	1709
scalar geant_network.node[7].content_store 	decision_no[7] 	0
scalar geant_network.node[7].content_store 	decision_ratio[7] 	1
scalar geant_network.node[8].core_layer 	interests[8] 	1305
scalar geant_network.node[8].core_layer 	repo_load[8] 	675
scalar geant_network.node[8].core_layer 	data[8] 	471
scalar geant_network.node[8].content_store 	p_hit[8] 	0.12183908045977
scalar geant_network.node[8].content_store 	hits[8] 	159
scalar geant_network.node[8].content_store 	misses[8] 	1146
scalar geant_network.node[8].content_store 	decision_yes[8] 	1146
scalar geant_network.node[8].content_store 	decision_no[8] 	0
scalar geant_network.node[8].content_store 	decision_ratio[8] 	1
scalar geant_network.node[9].core_layer 	interests[9] 	3461
scalar geant_network.node[9].core_layer 	repo_load[9] 	729
scalar geant_network.node[9].core_layer 	data[9] 	2032
scalar geant_network.node[9].content_store 	p_hit[9] 	0.20196475007223
scalar geant_network.node[9].content_store 	hits[9] 	699
scalar geant_network.node[9].content_store 	misses[9] 	2762
scalar geant_network.node[9].content_store 	decision_yes[9] 	2761
scalar geant_network.node[9].content_store 	decision_no[9] 	0
scalar geant_network.node[9].content_store 	decision_ratio[9] 	1
scalar geant_network.node[10].core_layer 	interests[10] 	2330
scalar geant_network.node[10].core_layer 	data[10] 	1322
scalar geant_network.node[10].content_store 	p_hit[10] 	0.43261802575107
scalar geant_network.node[10].content_store 	hits[10] 	1008
scalar geant_network.node[10].content_store 	misses[10] 	1322
scalar geant_network.node[10].content_store 	decision_yes[10] 	1322
scalar geant_network.node[10].content_store 	decision_no[10] 	0
scalar geant_network.node[10].content_store 	decision_ratio[10] 	1
scalar geant_network.node[11].core_layer 	interests[11] 	2436
scalar geant_network.node[11].core_layer 	repo_load[11] 	659
scalar geant_network.node[11].core_layer 	data[11] 	1007
scalar geant_network.node[11].content_store 	p_hit[11] 	0.31609195402299
scalar geant_network.node[11].content_store 	hits[11] 	770
scalar geant_network.node[11].content_store 	misses[11] 	1666
scalar geant_network.node[11].content_store 	decision_yes[11] 	1666
scalar geant_network.node[11].content_store 	decision_no[11] 	0
scalar geant_network.node[11].content_store 	decision_ratio[11] 	1
scalar geant_network.node[12].core_layer 	interests[12] 	3543
scalar geant_network.node[12].core_layer 	repo_load[12] 	811
scalar geant_network.node[12].core_layer 	data[12] 	2617
scalar geant_network.node[12].content_store 	p_hit[12] 	0.032458368614169
scalar geant_network.node[12].content_store 	hits[12] 	115
scalar geant_network.node[12].content_store 	misses[12] 	3428
scalar geant_network.node[12].content_store 	decision_yes[12] 	3428
scalar geant_network.node[12].content_store 	decision_no[12] 	0
scalar geant_network.node[12].content_store 	decision_ratio[12] 	1
scalar geant_network.node[13].core_layer 	interests[13] 	1345
scalar geant_network.node[13].core_layer 	repo_load[13] 	675
scalar geant_network.node[13].core_layer 	data[13] 	469
scalar geant_network.node[13].content_store 	p_hit[13] 	0.14869888475836
scalar geant_network.node[13].content_store 	hits[13] 	200
scalar geant_network.node[13].content_store 	misses[13] 	1145
scalar geant_network.node[13].content_store 	decision_yes[13] 	1144
scalar geant_network.node[13].content_store 	decision_no[13] 	0
scalar geant_network.node[13].content_store 	decision_ratio[13] 	1
scalar geant_network.node[14].core_layer 	interests[14] 	3548
scalar geant_network.node[14].core_layer 	data[14] 	2619
scalar geant_network.node[14].content_store 	p_hit[14] 	0.26155580608794
scalar geant_network.node[14].content_store 	hits[14] 	928
scalar geant_network.node[14].content_store 	misses[14] 	2620
scalar geant_network.node[14].content_store 	decision_yes[14] 	2619
scalar geant_network.node[14].content_store 	decision_no[14] 	0
scalar geant_network.node[14].content_store 	decision_ratio[14] 	1
scalar geant_network.node[15].core_layer 	interests[15] 	1885
scalar geant_network.node[15].core_layer 	repo_load[15] 	742
scalar geant_network.node[15].core_layer 	data[15] 	808
scalar geant_network.node[15].content_store 	p_hit[15] 	0.17771883289125
scalar geant_network.node[15].content_store 	hits[15] 	335
scalar geant_network.node[15].content_store 	misses[15] 	1550
scalar geant_network.node[15].content_store 	decision_yes[15] 	1550
scalar geant_network.node[15].content_store 	decision_no[15] 	0
scalar geant_network.node[15].content_store 	decision_ratio[15] 	1
scalar geant_network.node[16].core_layer 	interests[16] 	844
scalar geant_network.node[16].core_layer 	repo_load[16] 	625
scalar geant_network.node[16].core_layer 	data[16] 	0
scalar geant_network.node[16].content_store 	p_hit[16] 	0.25947867298578
scalar geant_network.node[16].content_store 	hits[16] 	219
scalar geant_network.node[16].content_store 	misses[16] 	625
scalar geant_network.node[16].content_store 	decision_yes[16] 	625
scalar geant_network.node[16].content_store 	decision_no[16] 	0
scalar geant_network.node[16].content_store 	decision_ratio[16] 	1
scalar geant_network.node[17].core_layer 	interests[17] 	2178
scalar geant_network.node[17].core_layer 	data[17] 	1277
scalar geant_network.node[17].content_store 	p_hit[17] 	0.41368227731864
scalar geant_network.node[17].content_store 	hits[17] 	901
scalar geant_network.node[17].content_store 	misses[17] 	1277
scalar geant_network.node[17].content_store 	decision_yes[17] 	1277
scalar geant_network.node[17].content_store 	decision_no[17] 	0
scalar geant_network.node[17].content_store 	decision_ratio[17] 	1
scalar geant_network.node[18].core_layer 	interests[18] 	3125
scalar geant_network.node[18].core_layer 	data[18] 	1960
scalar geant_network.node[18].content_store 	p_hit[18] 	0.3728
scalar geant_network.node[18].content_store 	hits[18] 	1165
scalar geant_network.node[18].content_store 	misses[18] 	1960
scalar geant_network.node[18].content_store 	decision_yes[18] 	1960
scalar geant_network.node[18].content_store 	decision_no[18] 	0
scalar geant_network.node[18].content_store 	decision_ratio[18] 	1
scalar geant_network.node[19].core_layer 	interests[19] 	0
scalar geant_network.node[19].core_layer 	data[19] 	0
scalar geant_network.node[19].content_store 	p_hit[19] 	-nan
scalar geant_network.node[19].content_store 	hits[19] 	0
scalar geant_network.node[19].content_store 	misses[19] 	0
scalar geant_network.node[19].content_store 	decision_yes[19] 	0
scalar geant_network.node[19].content_store 	decision_no[19] 	0
scalar geant_network.node[19].content_store 	decision_ratio[19] 	0
scalar geant_network.node[20].core_layer 	interests[20] 	2010
scalar geant_network.node[20].core_layer 	data[20] 	1129
scalar geant_network.node[20].content_store 	p_hit[20] 	0.43830845771144
scalar geant_network.node[20].content_store 	hits[20] 	881
scalar geant_network.node[20].content_store 	misses[20] 	1129
scalar geant_network.node[20].content_store 	decision_yes[20] 	1129
scalar geant_network.node[20].content_store 	decision_no[20] 	0
scalar geant_network.node[20].content_store 	decision_ratio[20] 	1
scalar geant_network.node[21].core_layer 	interests[21] 	1316
scalar geant_network.node[21].core_layer 	data[21] 	713
scalar geant_network.node[21].content_store 	p_hit[21] 	0.45820668693009
scalar geant_network.node[21].content_store 	hits[21] 	603
scalar geant_network.node[21].content_store 	misses[21] 	713
scalar geant_network.node[21].content_store 	decision_yes[21] 	713
scalar geant_network.node[21].content_store 	decision_no[21] 	0
scalar geant_network.node[21].content_store 	decision_ratio[21] 	1
scalar geant_network.client[0] 	hdistance[0] 	1.9151963574274
scalar geant_network.client[0] 	downloads[0] 	1757
scalar geant_network.client[0] 	avg_time[0] 	0.032393181113
scalar geant_network.client[0] 	interests_sent[0] 	1757
scalar geant_network.client[4] 	hdistance[4] 	1.6200227531286
scalar geant_network.client[4] 	downloads[4] 	1758
scalar geant_network.client[4] 	avg_time[4] 	0.007314436421
scalar geant_network.client[4] 	interests_sent[4] 	1758
scalar geant_network.client[5] 	hdistance[5] 	1.6090858104319
scalar geant_network.client[5] 	downloads[5] 	1783
scalar geant_network.client[5] 	avg_time[5] 	0.009537296255
scalar geant_network.client[5] 	interests_sent[5] 	1783
scalar geant_network.client[6] 	hdistance[6] 	1.979086406164
scalar geant_network.client[6] 	downloads[6] 	1817
scalar geant_network.client[6] 	avg_time[6] 	0.010940957167
scalar geant_network.client[6] 	interests_sent[6] 	1817
scalar geant_network.client[9] 	hdistance[9] 	1.7357656163626
scalar geant_network.client[9] 	downloads[9] 	1809
scalar geant_network.client[9] 	avg_time[9] 	0.011317445653
scalar geant_network.client[9] 	interests_sent[9] 	1809
scalar geant_network.client[10] 	hdistance[10] 	2.075587905935
scalar geant_network.client[10] 	downloads[10] 	1786
scalar geant_network.client[10] 	avg_time[10] 	0.011318994525
scalar geant_network.client[10] 	interests_sent[10] 	1786
scalar geant_network.client[11] 	hdistance[11] 	1.8961493582264
scalar geant_network.client[11] 	downloads[11] 	1714
scalar geant_network.client[11] 	avg_time[11] 	0.011829171087
scalar geant_network.client[11] 	interests_sent[11] 	1714
scalar geant_network.client[14] 	hdistance[14] 	1.5247359644247
scalar geant_network.client[14] 	downloads[14] 	1799
scalar geant_network.client[14] 	avg_time[14] 	0.016648359744
scalar geant_network.client[14] 	interests_sent[14] 	1800
scalar geant_network.client[17] 	hdistance[17] 	1.663687150838
scalar geant_network.client[17] 	downloads[17] 	1790
scalar geant_network.client[17] 	avg_time[17] 	0.011056077761
scalar geant_network.client[17] 	interests_sent[17] 	1790
scalar geant_network.client[18] 	hdistance[18] 	1.7455257270694
scalar geant_network.client[18] 	downloads[18] 	1788
scalar geant_network.client[18] 	avg_time[18] 	0.00909079374
scalar geant_network.client[18] 	interests_sent[18] 	1788
scalar geant_network.client[20] 	hdistance[20] 	2.1904761904762
scalar geant_network.client[20] 	downloads[20] 	1827
scalar geant_network.client[20] 	avg_time[20] 	0.012992774592
scalar geant_network.client[20] 	interests_sent[20] 	1827
