version 2
run General-1-20150520-12:02:22-24902
attr D two_lru
attr F nrr
attr R lru
attr a 1
attr configname General
attr datetime 20150520-12:02:22
attr experiment General
attr inifile omnetpp.ini
attr iterationvars "$net=geant, $rep=0, $a=1, $F=nrr, $ttl=1000, $D=two_lru, $R=lru"
attr iterationvars2 "$net=geant, $rep=0, $a=1, $F=nrr, $ttl=1000, $D=two_lru, $R=lru, $repetition=0"
attr measurement "$net=geant, $rep=0, $a=1, $F=nrr, $ttl=1000, $D=two_lru, $R=lru"
attr net geant
attr network networks.${net=geant}_network
attr processid 24902
attr rep 0
attr repetition 0
attr replication #0
attr resultdir results
attr runnumber 1
attr seedset 0
attr ttl 1000

scalar . 	a 	1
scalar . 	rep 	0
scalar . 	ttl 	1000
scalar geant_network.content_distribution 	repo-0 	5
scalar geant_network.content_distribution 	repo-1 	11
scalar geant_network.content_distribution 	repo-2 	12
scalar geant_network.content_distribution 	repo-3 	8
scalar geant_network.content_distribution 	repo-4 	9
scalar geant_network.content_distribution 	repo-5 	15
scalar geant_network.content_distribution 	repo-6 	0
scalar geant_network.content_distribution 	repo-7 	16
scalar geant_network.content_distribution 	repo-8 	1
scalar geant_network.content_distribution 	repo-9 	7
scalar geant_network.content_distribution 	repo-10 	13
scalar geant_network.content_distribution 	client-0 	6
scalar geant_network.content_distribution 	client-1 	18
scalar geant_network.content_distribution 	client-2 	20
scalar geant_network.content_distribution 	client-3 	5
scalar geant_network.content_distribution 	client-4 	11
scalar geant_network.content_distribution 	client-5 	10
scalar geant_network.content_distribution 	client-6 	14
scalar geant_network.content_distribution 	client-7 	4
scalar geant_network.content_distribution 	client-8 	9
scalar geant_network.content_distribution 	client-9 	17
scalar geant_network.content_distribution 	client-10 	0
scalar geant_network.content_distribution 	repo-0_card 	930
scalar geant_network.content_distribution 	repo-0_price 	0
scalar geant_network.content_distribution 	repo-1_card 	837
scalar geant_network.content_distribution 	repo-1_price 	0
scalar geant_network.content_distribution 	repo-2_card 	907
scalar geant_network.content_distribution 	repo-2_price 	0
scalar geant_network.content_distribution 	repo-3_card 	917
scalar geant_network.content_distribution 	repo-3_price 	0
scalar geant_network.content_distribution 	repo-4_card 	886
scalar geant_network.content_distribution 	repo-4_price 	0
scalar geant_network.content_distribution 	repo-5_card 	971
scalar geant_network.content_distribution 	repo-5_price 	0
scalar geant_network.content_distribution 	repo-6_card 	916
scalar geant_network.content_distribution 	repo-6_price 	0
scalar geant_network.content_distribution 	repo-7_card 	937
scalar geant_network.content_distribution 	repo-7_price 	0
scalar geant_network.content_distribution 	repo-8_card 	889
scalar geant_network.content_distribution 	repo-8_price 	0
scalar geant_network.content_distribution 	repo-9_card 	894
scalar geant_network.content_distribution 	repo-9_price 	0
scalar geant_network.content_distribution 	repo-10_card 	916
scalar geant_network.content_distribution 	repo-10_price 	0
scalar geant_network.statistics 	stabilization_time 	36120
scalar geant_network.statistics 	p_hit 	0.24648616659269
scalar geant_network.statistics 	interests 	2150.5909090909
scalar geant_network.statistics 	data 	1258.3181818182
scalar geant_network.statistics 	hdistance 	1.8158276662892
scalar geant_network.statistics 	avg_time 	0.01317010393
scalar geant_network.statistics 	downloads 	19628
scalar geant_network.statistics 	total_cost 	0
scalar geant_network.statistics 	total_replicas 	10000
scalar geant_network.statistics 	inner_hit 	0.59420216017934
scalar geant_network.statistics 	interests_sent 	19629
scalar geant_network.node[0].core_layer 	interests[0] 	2604
scalar geant_network.node[0].core_layer 	repo_load[0] 	800
scalar geant_network.node[0].core_layer 	data[0] 	1133
scalar geant_network.node[0].core_layer 	repo_int[0] 	7965
scalar geant_network.node[0].content_store 	p_hit[0] 	0.25768049155146
scalar geant_network.node[0].content_store 	hits[0] 	671
scalar geant_network.node[0].content_store 	misses[0] 	1933
scalar geant_network.node[0].content_store 	decision_yes[0] 	1933
scalar geant_network.node[0].content_store 	decision_no[0] 	0
scalar geant_network.node[0].content_store 	decision_ratio[0] 	1
scalar geant_network.node[1].core_layer 	interests[1] 	1883
scalar geant_network.node[1].core_layer 	repo_load[1] 	700
scalar geant_network.node[1].core_layer 	data[1] 	1039
scalar geant_network.node[1].content_store 	p_hit[1] 	0.076473712161445
scalar geant_network.node[1].content_store 	hits[1] 	144
scalar geant_network.node[1].content_store 	misses[1] 	1739
scalar geant_network.node[1].content_store 	decision_yes[1] 	1739
scalar geant_network.node[1].content_store 	decision_no[1] 	0
scalar geant_network.node[1].content_store 	decision_ratio[1] 	1
scalar geant_network.node[2].core_layer 	interests[2] 	0
scalar geant_network.node[2].core_layer 	data[2] 	0
scalar geant_network.node[2].content_store 	p_hit[2] 	-nan
scalar geant_network.node[2].content_store 	hits[2] 	0
scalar geant_network.node[2].content_store 	misses[2] 	0
scalar geant_network.node[2].content_store 	decision_yes[2] 	0
scalar geant_network.node[2].content_store 	decision_no[2] 	0
scalar geant_network.node[2].content_store 	decision_ratio[2] 	0
scalar geant_network.node[3].core_layer 	interests[3] 	2652
scalar geant_network.node[3].core_layer 	data[3] 	2438
scalar geant_network.node[3].content_store 	p_hit[3] 	0.080693815987934
scalar geant_network.node[3].content_store 	hits[3] 	214
scalar geant_network.node[3].content_store 	misses[3] 	2438
scalar geant_network.node[3].content_store 	decision_yes[3] 	2438
scalar geant_network.node[3].content_store 	decision_no[3] 	0
scalar geant_network.node[3].content_store 	decision_ratio[3] 	1
scalar geant_network.node[4].core_layer 	interests[4] 	3462
scalar geant_network.node[4].core_layer 	data[4] 	2686
scalar geant_network.node[4].content_store 	p_hit[4] 	0.22414789139226
scalar geant_network.node[4].content_store 	hits[4] 	776
scalar geant_network.node[4].content_store 	misses[4] 	2686
scalar geant_network.node[4].content_store 	decision_yes[4] 	2686
scalar geant_network.node[4].content_store 	decision_no[4] 	0
scalar geant_network.node[4].content_store 	decision_ratio[4] 	1
scalar geant_network.node[5].core_layer 	interests[5] 	3316
scalar geant_network.node[5].core_layer 	repo_load[5] 	857
scalar geant_network.node[5].core_layer 	data[5] 	1657
scalar geant_network.node[5].content_store 	p_hit[5] 	0.24185765983112
scalar geant_network.node[5].content_store 	hits[5] 	802
scalar geant_network.node[5].content_store 	misses[5] 	2514
scalar geant_network.node[5].content_store 	decision_yes[5] 	2514
scalar geant_network.node[5].content_store 	decision_no[5] 	0
scalar geant_network.node[5].content_store 	decision_ratio[5] 	1
scalar geant_network.node[6].core_layer 	interests[6] 	2162
scalar geant_network.node[6].core_layer 	data[6] 	1276
scalar geant_network.node[6].content_store 	p_hit[6] 	0.40980573543016
scalar geant_network.node[6].content_store 	hits[6] 	886
scalar geant_network.node[6].content_store 	misses[6] 	1276
scalar geant_network.node[6].content_store 	decision_yes[6] 	1276
scalar geant_network.node[6].content_store 	decision_no[6] 	0
scalar geant_network.node[6].content_store 	decision_ratio[6] 	1
scalar geant_network.node[7].core_layer 	interests[7] 	1895
scalar geant_network.node[7].core_layer 	repo_load[7] 	683
scalar geant_network.node[7].core_layer 	data[7] 	1042
scalar geant_network.node[7].content_store 	p_hit[7] 	0.089709762532982
scalar geant_network.node[7].content_store 	hits[7] 	170
scalar geant_network.node[7].content_store 	misses[7] 	1725
scalar geant_network.node[7].content_store 	decision_yes[7] 	1725
scalar geant_network.node[7].content_store 	decision_no[7] 	0
scalar geant_network.node[7].content_store 	decision_ratio[7] 	1
scalar geant_network.node[8].core_layer 	interests[8] 	1303
scalar geant_network.node[8].core_layer 	repo_load[8] 	669
scalar geant_network.node[8].core_layer 	data[8] 	479
scalar geant_network.node[8].content_store 	p_hit[8] 	0.11895625479662
scalar geant_network.node[8].content_store 	hits[8] 	155
scalar geant_network.node[8].content_store 	misses[8] 	1148
scalar geant_network.node[8].content_store 	decision_yes[8] 	1148
scalar geant_network.node[8].content_store 	decision_no[8] 	0
scalar geant_network.node[8].content_store 	decision_ratio[8] 	1
scalar geant_network.node[9].core_layer 	interests[9] 	3477
scalar geant_network.node[9].core_layer 	repo_load[9] 	739
scalar geant_network.node[9].core_layer 	data[9] 	2030
scalar geant_network.node[9].content_store 	p_hit[9] 	0.2033362093759
scalar geant_network.node[9].content_store 	hits[9] 	707
scalar geant_network.node[9].content_store 	misses[9] 	2770
scalar geant_network.node[9].content_store 	decision_yes[9] 	2769
scalar geant_network.node[9].content_store 	decision_no[9] 	0
scalar geant_network.node[9].content_store 	decision_ratio[9] 	1
scalar geant_network.node[10].core_layer 	interests[10] 	2339
scalar geant_network.node[10].core_layer 	data[10] 	1327
scalar geant_network.node[10].content_store 	p_hit[10] 	0.43266353142369
scalar geant_network.node[10].content_store 	hits[10] 	1012
scalar geant_network.node[10].content_store 	misses[10] 	1327
scalar geant_network.node[10].content_store 	decision_yes[10] 	1327
scalar geant_network.node[10].content_store 	decision_no[10] 	0
scalar geant_network.node[10].content_store 	decision_ratio[10] 	1
scalar geant_network.node[11].core_layer 	interests[11] 	2421
scalar geant_network.node[11].core_layer 	repo_load[11] 	658
scalar geant_network.node[11].core_layer 	data[11] 	1006
scalar geant_network.node[11].content_store 	p_hit[11] 	0.31268071045023
scalar geant_network.node[11].content_store 	hits[11] 	757
scalar geant_network.node[11].content_store 	misses[11] 	1664
scalar geant_network.node[11].content_store 	decision_yes[11] 	1664
scalar geant_network.node[11].content_store 	decision_no[11] 	0
scalar geant_network.node[11].content_store 	decision_ratio[11] 	1
scalar geant_network.node[12].core_layer 	interests[12] 	3532
scalar geant_network.node[12].core_layer 	repo_load[12] 	811
scalar geant_network.node[12].core_layer 	data[12] 	2607
scalar geant_network.node[12].content_store 	p_hit[12] 	0.032276330690827
scalar geant_network.node[12].content_store 	hits[12] 	114
scalar geant_network.node[12].content_store 	misses[12] 	3418
scalar geant_network.node[12].content_store 	decision_yes[12] 	3418
scalar geant_network.node[12].content_store 	decision_no[12] 	0
scalar geant_network.node[12].content_store 	decision_ratio[12] 	1
scalar geant_network.node[13].core_layer 	interests[13] 	1344
scalar geant_network.node[13].core_layer 	repo_load[13] 	679
scalar geant_network.node[13].core_layer 	data[13] 	480
scalar geant_network.node[13].content_store 	p_hit[13] 	0.13690476190476
scalar geant_network.node[13].content_store 	hits[13] 	184
scalar geant_network.node[13].content_store 	misses[13] 	1160
scalar geant_network.node[13].content_store 	decision_yes[13] 	1159
scalar geant_network.node[13].content_store 	decision_no[13] 	0
scalar geant_network.node[13].content_store 	decision_ratio[13] 	1
scalar geant_network.node[14].core_layer 	interests[14] 	3553
scalar geant_network.node[14].core_layer 	data[14] 	2600
scalar geant_network.node[14].content_store 	p_hit[14] 	0.26794258373206
scalar geant_network.node[14].content_store 	hits[14] 	952
scalar geant_network.node[14].content_store 	misses[14] 	2601
scalar geant_network.node[14].content_store 	decision_yes[14] 	2600
scalar geant_network.node[14].content_store 	decision_no[14] 	0
scalar geant_network.node[14].content_store 	decision_ratio[14] 	1
scalar geant_network.node[15].core_layer 	interests[15] 	1888
scalar geant_network.node[15].core_layer 	repo_load[15] 	744
scalar geant_network.node[15].core_layer 	data[15] 	787
scalar geant_network.node[15].content_store 	p_hit[15] 	0.18908898305085
scalar geant_network.node[15].content_store 	hits[15] 	357
scalar geant_network.node[15].content_store 	misses[15] 	1531
scalar geant_network.node[15].content_store 	decision_yes[15] 	1531
scalar geant_network.node[15].content_store 	decision_no[15] 	0
scalar geant_network.node[15].content_store 	decision_ratio[15] 	1
scalar geant_network.node[16].core_layer 	interests[16] 	837
scalar geant_network.node[16].core_layer 	repo_load[16] 	625
scalar geant_network.node[16].core_layer 	data[16] 	0
scalar geant_network.node[16].content_store 	p_hit[16] 	0.25328554360812
scalar geant_network.node[16].content_store 	hits[16] 	212
scalar geant_network.node[16].content_store 	misses[16] 	625
scalar geant_network.node[16].content_store 	decision_yes[16] 	625
scalar geant_network.node[16].content_store 	decision_no[16] 	0
scalar geant_network.node[16].content_store 	decision_ratio[16] 	1
scalar geant_network.node[17].core_layer 	interests[17] 	2163
scalar geant_network.node[17].core_layer 	data[17] 	1275
scalar geant_network.node[17].content_store 	p_hit[17] 	0.41054091539528
scalar geant_network.node[17].content_store 	hits[17] 	888
scalar geant_network.node[17].content_store 	misses[17] 	1275
scalar geant_network.node[17].content_store 	decision_yes[17] 	1275
scalar geant_network.node[17].content_store 	decision_no[17] 	0
scalar geant_network.node[17].content_store 	decision_ratio[17] 	1
scalar geant_network.node[18].core_layer 	interests[18] 	3103
scalar geant_network.node[18].core_layer 	data[18] 	1965
scalar geant_network.node[18].content_store 	p_hit[18] 	0.3667418627135
scalar geant_network.node[18].content_store 	hits[18] 	1138
scalar geant_network.node[18].content_store 	misses[18] 	1965
scalar geant_network.node[18].content_store 	decision_yes[18] 	1965
scalar geant_network.node[18].content_store 	decision_no[18] 	0
scalar geant_network.node[18].content_store 	decision_ratio[18] 	1
scalar geant_network.node[19].core_layer 	interests[19] 	0
scalar geant_network.node[19].core_layer 	data[19] 	0
scalar geant_network.node[19].content_store 	p_hit[19] 	-nan
scalar geant_network.node[19].content_store 	hits[19] 	0
scalar geant_network.node[19].content_store 	misses[19] 	0
scalar geant_network.node[19].content_store 	decision_yes[19] 	0
scalar geant_network.node[19].content_store 	decision_no[19] 	0
scalar geant_network.node[19].content_store 	decision_ratio[19] 	0
scalar geant_network.node[20].core_layer 	interests[20] 	2020
scalar geant_network.node[20].core_layer 	data[20] 	1133
scalar geant_network.node[20].content_store 	p_hit[20] 	0.43910891089109
scalar geant_network.node[20].content_store 	hits[20] 	887
scalar geant_network.node[20].content_store 	misses[20] 	1133
scalar geant_network.node[20].content_store 	decision_yes[20] 	1133
scalar geant_network.node[20].content_store 	decision_no[20] 	0
scalar geant_network.node[20].content_store 	decision_ratio[20] 	1
scalar geant_network.node[21].core_layer 	interests[21] 	1359
scalar geant_network.node[21].core_layer 	data[21] 	723
scalar geant_network.node[21].content_store 	p_hit[21] 	0.46799116997792
scalar geant_network.node[21].content_store 	hits[21] 	636
scalar geant_network.node[21].content_store 	misses[21] 	723
scalar geant_network.node[21].content_store 	decision_yes[21] 	723
scalar geant_network.node[21].content_store 	decision_no[21] 	0
scalar geant_network.node[21].content_store 	decision_ratio[21] 	1
scalar geant_network.client[0] 	hdistance[0] 	1.911781445646
scalar geant_network.client[0] 	downloads[0] 	1757
scalar geant_network.client[0] 	avg_time[0] 	0.032173203875
scalar geant_network.client[0] 	interests_sent[0] 	1757
scalar geant_network.client[4] 	hdistance[4] 	1.6143344709898
scalar geant_network.client[4] 	downloads[4] 	1758
scalar geant_network.client[4] 	avg_time[4] 	0.00728742847
scalar geant_network.client[4] 	interests_sent[4] 	1758
scalar geant_network.client[5] 	hdistance[5] 	1.6158160403814
scalar geant_network.client[5] 	downloads[5] 	1783
scalar geant_network.client[5] 	avg_time[5] 	0.009581255872
scalar geant_network.client[5] 	interests_sent[5] 	1783
scalar geant_network.client[6] 	hdistance[6] 	1.9878921298844
scalar geant_network.client[6] 	downloads[6] 	1817
scalar geant_network.client[6] 	avg_time[6] 	0.010918568622
scalar geant_network.client[6] 	interests_sent[6] 	1817
scalar geant_network.client[9] 	hdistance[9] 	1.7363184079602
scalar geant_network.client[9] 	downloads[9] 	1809
scalar geant_network.client[9] 	avg_time[9] 	0.011340099056
scalar geant_network.client[9] 	interests_sent[9] 	1809
scalar geant_network.client[10] 	hdistance[10] 	2.0767077267637
scalar geant_network.client[10] 	downloads[10] 	1786
scalar geant_network.client[10] 	avg_time[10] 	0.01128749396
scalar geant_network.client[10] 	interests_sent[10] 	1786
scalar geant_network.client[11] 	hdistance[11] 	1.8996499416569
scalar geant_network.client[11] 	downloads[11] 	1714
scalar geant_network.client[11] 	avg_time[11] 	0.012044515324
scalar geant_network.client[11] 	interests_sent[11] 	1714
scalar geant_network.client[14] 	hdistance[14] 	1.5269594219011
scalar geant_network.client[14] 	downloads[14] 	1799
scalar geant_network.client[14] 	avg_time[14] 	0.016853173523
scalar geant_network.client[14] 	interests_sent[14] 	1800
scalar geant_network.client[17] 	hdistance[17] 	1.6692737430168
scalar geant_network.client[17] 	downloads[17] 	1790
scalar geant_network.client[17] 	avg_time[17] 	0.0114202677
scalar geant_network.client[17] 	interests_sent[17] 	1790
scalar geant_network.client[18] 	hdistance[18] 	1.741610738255
scalar geant_network.client[18] 	downloads[18] 	1788
scalar geant_network.client[18] 	avg_time[18] 	0.009037605813
scalar geant_network.client[18] 	interests_sent[18] 	1788
scalar geant_network.client[20] 	hdistance[20] 	2.1937602627258
scalar geant_network.client[20] 	downloads[20] 	1827
scalar geant_network.client[20] 	avg_time[20] 	0.012927531019
scalar geant_network.client[20] 	interests_sent[20] 	1827
