version 2
run General-3-20150521-12:38:03-11565
attr D two_lru
attr F nrr
attr R lru
attr a 1
attr configname General
attr datetime 20150521-12:38:03
attr experiment General
attr inifile omnetpp.ini
attr iterationvars "$net=geant, $rep=0, $a=1, $F=nrr, $ttl=1000, $D=two_lru, $R=lru"
attr iterationvars2 "$net=geant, $rep=0, $a=1, $F=nrr, $ttl=1000, $D=two_lru, $R=lru, $repetition=0"
attr measurement "$net=geant, $rep=0, $a=1, $F=nrr, $ttl=1000, $D=two_lru, $R=lru"
attr net geant
attr network networks.${net=abilene,geant}_network
attr processid 11565
attr rep 0
attr repetition 0
attr replication #0
attr resultdir results
attr runnumber 3
attr seedset 0
attr ttl 1000

scalar . 	a 	1
scalar . 	rep 	0
scalar . 	ttl 	1000
scalar geant_network.content_distribution 	repo-0 	5
scalar geant_network.content_distribution 	repo-1 	11
scalar geant_network.content_distribution 	repo-2 	12
scalar geant_network.content_distribution 	repo-3 	8
scalar geant_network.content_distribution 	repo-4 	9
scalar geant_network.content_distribution 	repo-5 	15
scalar geant_network.content_distribution 	repo-6 	0
scalar geant_network.content_distribution 	repo-7 	16
scalar geant_network.content_distribution 	repo-8 	1
scalar geant_network.content_distribution 	repo-9 	7
scalar geant_network.content_distribution 	repo-10 	13
scalar geant_network.content_distribution 	client-0 	6
scalar geant_network.content_distribution 	client-1 	18
scalar geant_network.content_distribution 	client-2 	20
scalar geant_network.content_distribution 	client-3 	5
scalar geant_network.content_distribution 	client-4 	11
scalar geant_network.content_distribution 	client-5 	10
scalar geant_network.content_distribution 	client-6 	14
scalar geant_network.content_distribution 	client-7 	4
scalar geant_network.content_distribution 	client-8 	9
scalar geant_network.content_distribution 	client-9 	17
scalar geant_network.content_distribution 	client-10 	0
scalar geant_network.content_distribution 	repo-0_card 	930
scalar geant_network.content_distribution 	repo-0_price 	0
scalar geant_network.content_distribution 	repo-1_card 	837
scalar geant_network.content_distribution 	repo-1_price 	0
scalar geant_network.content_distribution 	repo-2_card 	907
scalar geant_network.content_distribution 	repo-2_price 	0
scalar geant_network.content_distribution 	repo-3_card 	917
scalar geant_network.content_distribution 	repo-3_price 	0
scalar geant_network.content_distribution 	repo-4_card 	886
scalar geant_network.content_distribution 	repo-4_price 	0
scalar geant_network.content_distribution 	repo-5_card 	971
scalar geant_network.content_distribution 	repo-5_price 	0
scalar geant_network.content_distribution 	repo-6_card 	916
scalar geant_network.content_distribution 	repo-6_price 	0
scalar geant_network.content_distribution 	repo-7_card 	937
scalar geant_network.content_distribution 	repo-7_price 	0
scalar geant_network.content_distribution 	repo-8_card 	889
scalar geant_network.content_distribution 	repo-8_price 	0
scalar geant_network.content_distribution 	repo-9_card 	894
scalar geant_network.content_distribution 	repo-9_price 	0
scalar geant_network.content_distribution 	repo-10_card 	916
scalar geant_network.content_distribution 	repo-10_price 	0
scalar geant_network.statistics 	stabilization_time 	36120
scalar geant_network.statistics 	p_hit 	0.31326486263925
scalar geant_network.statistics 	interests 	1987.1363636364
scalar geant_network.statistics 	data 	1094.9090909091
scalar geant_network.statistics 	hdistance 	1.5294370135374
scalar geant_network.statistics 	avg_time 	0.011518134498
scalar geant_network.statistics 	downloads 	19629
scalar geant_network.statistics 	total_cost 	0
scalar geant_network.statistics 	total_replicas 	10000
scalar geant_network.statistics 	inner_hit 	0.69769219012685
scalar geant_network.statistics 	interests_sent 	19629
scalar geant_network.node[0].core_layer 	interests[0] 	2444
scalar geant_network.node[0].core_layer 	repo_load[0] 	582
scalar geant_network.node[0].core_layer 	data[0] 	1138
scalar geant_network.node[0].core_layer 	repo_int[0] 	5934
scalar geant_network.node[0].content_store 	p_hit[0] 	0.2962356792144
scalar geant_network.node[0].content_store 	hits[0] 	724
scalar geant_network.node[0].content_store 	misses[0] 	1720
scalar geant_network.node[0].content_store 	decision_yes[0] 	662
scalar geant_network.node[0].content_store 	decision_no[0] 	1058
scalar geant_network.node[0].content_store 	decision_ratio[0] 	0.38488372093023
scalar geant_network.node[1].core_layer 	interests[1] 	1606
scalar geant_network.node[1].core_layer 	repo_load[1] 	502
scalar geant_network.node[1].core_layer 	data[1] 	931
scalar geant_network.node[1].content_store 	p_hit[1] 	0.10772104607721
scalar geant_network.node[1].content_store 	hits[1] 	173
scalar geant_network.node[1].content_store 	misses[1] 	1433
scalar geant_network.node[1].content_store 	decision_yes[1] 	549
scalar geant_network.node[1].content_store 	decision_no[1] 	884
scalar geant_network.node[1].content_store 	decision_ratio[1] 	0.3831123517097
scalar geant_network.node[2].core_layer 	interests[2] 	0
scalar geant_network.node[2].core_layer 	data[2] 	0
scalar geant_network.node[2].content_store 	p_hit[2] 	-nan
scalar geant_network.node[2].content_store 	hits[2] 	0
scalar geant_network.node[2].content_store 	misses[2] 	0
scalar geant_network.node[2].content_store 	decision_yes[2] 	0
scalar geant_network.node[2].content_store 	decision_no[2] 	0
scalar geant_network.node[2].content_store 	decision_ratio[2] 	0
scalar geant_network.node[3].core_layer 	interests[3] 	2599
scalar geant_network.node[3].core_layer 	data[3] 	2099
scalar geant_network.node[3].content_store 	p_hit[3] 	0.19238168526356
scalar geant_network.node[3].content_store 	hits[3] 	500
scalar geant_network.node[3].content_store 	misses[3] 	2099
scalar geant_network.node[3].content_store 	decision_yes[3] 	87
scalar geant_network.node[3].content_store 	decision_no[3] 	2012
scalar geant_network.node[3].content_store 	decision_ratio[3] 	0.041448308718437
scalar geant_network.node[4].core_layer 	interests[4] 	3343
scalar geant_network.node[4].core_layer 	data[4] 	2274
scalar geant_network.node[4].content_store 	p_hit[4] 	0.31977265928806
scalar geant_network.node[4].content_store 	hits[4] 	1069
scalar geant_network.node[4].content_store 	misses[4] 	2274
scalar geant_network.node[4].content_store 	decision_yes[4] 	93
scalar geant_network.node[4].content_store 	decision_no[4] 	2181
scalar geant_network.node[4].content_store 	decision_ratio[4] 	0.04089709762533
scalar geant_network.node[5].core_layer 	interests[5] 	3064
scalar geant_network.node[5].core_layer 	repo_load[5] 	620
scalar geant_network.node[5].core_layer 	data[5] 	1605
scalar geant_network.node[5].content_store 	p_hit[5] 	0.27382506527415
scalar geant_network.node[5].content_store 	hits[5] 	839
scalar geant_network.node[5].content_store 	misses[5] 	2225
scalar geant_network.node[5].content_store 	decision_yes[5] 	716
scalar geant_network.node[5].content_store 	decision_no[5] 	1509
scalar geant_network.node[5].content_store 	decision_ratio[5] 	0.32179775280899
scalar geant_network.node[6].core_layer 	interests[6] 	2177
scalar geant_network.node[6].core_layer 	data[6] 	1041
scalar geant_network.node[6].content_store 	p_hit[6] 	0.52181901699587
scalar geant_network.node[6].content_store 	hits[6] 	1136
scalar geant_network.node[6].content_store 	misses[6] 	1041
scalar geant_network.node[6].content_store 	decision_yes[6] 	35
scalar geant_network.node[6].content_store 	decision_no[6] 	1006
scalar geant_network.node[6].content_store 	decision_ratio[6] 	0.033621517771374
scalar geant_network.node[7].core_layer 	interests[7] 	1557
scalar geant_network.node[7].core_layer 	repo_load[7] 	484
scalar geant_network.node[7].core_layer 	data[7] 	890
scalar geant_network.node[7].content_store 	p_hit[7] 	0.11753371868979
scalar geant_network.node[7].content_store 	hits[7] 	183
scalar geant_network.node[7].content_store 	misses[7] 	1374
scalar geant_network.node[7].content_store 	decision_yes[7] 	550
scalar geant_network.node[7].content_store 	decision_no[7] 	824
scalar geant_network.node[7].content_store 	decision_ratio[7] 	0.40029112081514
scalar geant_network.node[8].core_layer 	interests[8] 	1092
scalar geant_network.node[8].core_layer 	repo_load[8] 	517
scalar geant_network.node[8].core_layer 	data[8] 	386
scalar geant_network.node[8].content_store 	p_hit[8] 	0.17307692307692
scalar geant_network.node[8].content_store 	hits[8] 	189
scalar geant_network.node[8].content_store 	misses[8] 	903
scalar geant_network.node[8].content_store 	decision_yes[8] 	543
scalar geant_network.node[8].content_store 	decision_no[8] 	360
scalar geant_network.node[8].content_store 	decision_ratio[8] 	0.60132890365449
scalar geant_network.node[9].core_layer 	interests[9] 	3238
scalar geant_network.node[9].core_layer 	repo_load[9] 	568
scalar geant_network.node[9].core_layer 	data[9] 	1909
scalar geant_network.node[9].content_store 	p_hit[9] 	0.23502161828289
scalar geant_network.node[9].content_store 	hits[9] 	761
scalar geant_network.node[9].content_store 	misses[9] 	2477
scalar geant_network.node[9].content_store 	decision_yes[9] 	665
scalar geant_network.node[9].content_store 	decision_no[9] 	1812
scalar geant_network.node[9].content_store 	decision_ratio[9] 	0.26846992329431
scalar geant_network.node[10].core_layer 	interests[10] 	2493
scalar geant_network.node[10].core_layer 	data[10] 	1075
scalar geant_network.node[10].content_store 	p_hit[10] 	0.56879261933414
scalar geant_network.node[10].content_store 	hits[10] 	1418
scalar geant_network.node[10].content_store 	misses[10] 	1075
scalar geant_network.node[10].content_store 	decision_yes[10] 	32
scalar geant_network.node[10].content_store 	decision_no[10] 	1043
scalar geant_network.node[10].content_store 	decision_ratio[10] 	0.029767441860465
scalar geant_network.node[11].core_layer 	interests[11] 	2248
scalar geant_network.node[11].core_layer 	repo_load[11] 	483
scalar geant_network.node[11].core_layer 	data[11] 	998
scalar geant_network.node[11].content_store 	p_hit[11] 	0.34119217081851
scalar geant_network.node[11].content_store 	hits[11] 	767
scalar geant_network.node[11].content_store 	misses[11] 	1481
scalar geant_network.node[11].content_store 	decision_yes[11] 	546
scalar geant_network.node[11].content_store 	decision_no[11] 	935
scalar geant_network.node[11].content_store 	decision_ratio[11] 	0.36866981769075
scalar geant_network.node[12].core_layer 	interests[12] 	3103
scalar geant_network.node[12].core_layer 	repo_load[12] 	577
scalar geant_network.node[12].core_layer 	data[12] 	2319
scalar geant_network.node[12].content_store 	p_hit[12] 	0.066709635836287
scalar geant_network.node[12].content_store 	hits[12] 	207
scalar geant_network.node[12].content_store 	misses[12] 	2896
scalar geant_network.node[12].content_store 	decision_yes[12] 	656
scalar geant_network.node[12].content_store 	decision_no[12] 	2240
scalar geant_network.node[12].content_store 	decision_ratio[12] 	0.22651933701657
scalar geant_network.node[13].core_layer 	interests[13] 	1111
scalar geant_network.node[13].core_layer 	repo_load[13] 	521
scalar geant_network.node[13].core_layer 	data[13] 	412
scalar geant_network.node[13].content_store 	p_hit[13] 	0.16021602160216
scalar geant_network.node[13].content_store 	hits[13] 	178
scalar geant_network.node[13].content_store 	misses[13] 	933
scalar geant_network.node[13].content_store 	decision_yes[13] 	539
scalar geant_network.node[13].content_store 	decision_no[13] 	394
scalar geant_network.node[13].content_store 	decision_ratio[13] 	0.57770632368703
scalar geant_network.node[14].core_layer 	interests[14] 	3266
scalar geant_network.node[14].core_layer 	data[14] 	2061
scalar geant_network.node[14].content_store 	p_hit[14] 	0.3689528475199
scalar geant_network.node[14].content_store 	hits[14] 	1205
scalar geant_network.node[14].content_store 	misses[14] 	2061
scalar geant_network.node[14].content_store 	decision_yes[14] 	90
scalar geant_network.node[14].content_store 	decision_no[14] 	1971
scalar geant_network.node[14].content_store 	decision_ratio[14] 	0.043668122270742
scalar geant_network.node[15].core_layer 	interests[15] 	1519
scalar geant_network.node[15].core_layer 	repo_load[15] 	583
scalar geant_network.node[15].core_layer 	data[15] 	712
scalar geant_network.node[15].content_store 	p_hit[15] 	0.14746543778802
scalar geant_network.node[15].content_store 	hits[15] 	224
scalar geant_network.node[15].content_store 	misses[15] 	1295
scalar geant_network.node[15].content_store 	decision_yes[15] 	615
scalar geant_network.node[15].content_store 	decision_no[15] 	680
scalar geant_network.node[15].content_store 	decision_ratio[15] 	0.47490347490347
scalar geant_network.node[16].core_layer 	interests[16] 	637
scalar geant_network.node[16].core_layer 	repo_load[16] 	497
scalar geant_network.node[16].core_layer 	data[16] 	0
scalar geant_network.node[16].content_store 	p_hit[16] 	0.21978021978022
scalar geant_network.node[16].content_store 	hits[16] 	140
scalar geant_network.node[16].content_store 	misses[16] 	497
scalar geant_network.node[16].content_store 	decision_yes[16] 	497
scalar geant_network.node[16].content_store 	decision_no[16] 	0
scalar geant_network.node[16].content_store 	decision_ratio[16] 	1
scalar geant_network.node[17].core_layer 	interests[17] 	2111
scalar geant_network.node[17].core_layer 	data[17] 	1047
scalar geant_network.node[17].content_store 	p_hit[17] 	0.50402652771198
scalar geant_network.node[17].content_store 	hits[17] 	1064
scalar geant_network.node[17].content_store 	misses[17] 	1047
scalar geant_network.node[17].content_store 	decision_yes[17] 	37
scalar geant_network.node[17].content_store 	decision_no[17] 	1010
scalar geant_network.node[17].content_store 	decision_ratio[17] 	0.035339063992359
scalar geant_network.node[18].core_layer 	interests[18] 	2885
scalar geant_network.node[18].core_layer 	data[18] 	1656
scalar geant_network.node[18].content_store 	p_hit[18] 	0.42599653379549
scalar geant_network.node[18].content_store 	hits[18] 	1229
scalar geant_network.node[18].content_store 	misses[18] 	1656
scalar geant_network.node[18].content_store 	decision_yes[18] 	76
scalar geant_network.node[18].content_store 	decision_no[18] 	1580
scalar geant_network.node[18].content_store 	decision_ratio[18] 	0.045893719806763
scalar geant_network.node[19].core_layer 	interests[19] 	0
scalar geant_network.node[19].core_layer 	data[19] 	0
scalar geant_network.node[19].content_store 	p_hit[19] 	-nan
scalar geant_network.node[19].content_store 	hits[19] 	0
scalar geant_network.node[19].content_store 	misses[19] 	0
scalar geant_network.node[19].content_store 	decision_yes[19] 	0
scalar geant_network.node[19].content_store 	decision_no[19] 	0
scalar geant_network.node[19].content_store 	decision_ratio[19] 	0
scalar geant_network.node[20].core_layer 	interests[20] 	1978
scalar geant_network.node[20].core_layer 	data[20] 	944
scalar geant_network.node[20].content_store 	p_hit[20] 	0.52275025278059
scalar geant_network.node[20].content_store 	hits[20] 	1034
scalar geant_network.node[20].content_store 	misses[20] 	944
scalar geant_network.node[20].content_store 	decision_yes[20] 	34
scalar geant_network.node[20].content_store 	decision_no[20] 	910
scalar geant_network.node[20].content_store 	decision_ratio[20] 	0.036016949152542
scalar geant_network.node[21].core_layer 	interests[21] 	1246
scalar geant_network.node[21].core_layer 	data[21] 	591
scalar geant_network.node[21].content_store 	p_hit[21] 	0.52568218298555
scalar geant_network.node[21].content_store 	hits[21] 	655
scalar geant_network.node[21].content_store 	misses[21] 	591
scalar geant_network.node[21].content_store 	decision_yes[21] 	31
scalar geant_network.node[21].content_store 	decision_no[21] 	560
scalar geant_network.node[21].content_store 	decision_ratio[21] 	0.052453468697124
scalar geant_network.client[0] 	hdistance[0] 	1.6715993170176
scalar geant_network.client[0] 	downloads[0] 	1757
scalar geant_network.client[0] 	avg_time[0] 	0.03179166718
scalar geant_network.client[0] 	interests_sent[0] 	1757
scalar geant_network.client[4] 	hdistance[4] 	1.2986348122867
scalar geant_network.client[4] 	downloads[4] 	1758
scalar geant_network.client[4] 	avg_time[4] 	0.005833924476
scalar geant_network.client[4] 	interests_sent[4] 	1758
scalar geant_network.client[5] 	hdistance[5] 	1.4324172742569
scalar geant_network.client[5] 	downloads[5] 	1783
scalar geant_network.client[5] 	avg_time[5] 	0.008801368038
scalar geant_network.client[5] 	interests_sent[5] 	1783
scalar geant_network.client[6] 	hdistance[6] 	1.5883324160704
scalar geant_network.client[6] 	downloads[6] 	1817
scalar geant_network.client[6] 	avg_time[6] 	0.008804369372
scalar geant_network.client[6] 	interests_sent[6] 	1817
scalar geant_network.client[9] 	hdistance[9] 	1.5323383084577
scalar geant_network.client[9] 	downloads[9] 	1809
scalar geant_network.client[9] 	avg_time[9] 	0.009692614264
scalar geant_network.client[9] 	interests_sent[9] 	1809
scalar geant_network.client[10] 	hdistance[10] 	1.7407614781635
scalar geant_network.client[10] 	downloads[10] 	1786
scalar geant_network.client[10] 	avg_time[10] 	0.00968142172
scalar geant_network.client[10] 	interests_sent[10] 	1786
scalar geant_network.client[11] 	hdistance[11] 	1.6796966161027
scalar geant_network.client[11] 	downloads[11] 	1714
scalar geant_network.client[11] 	avg_time[11] 	0.010442018247
scalar geant_network.client[11] 	interests_sent[11] 	1714
scalar geant_network.client[14] 	hdistance[14] 	1.2605555555556
scalar geant_network.client[14] 	downloads[14] 	1800
scalar geant_network.client[14] 	avg_time[14] 	0.013981677333
scalar geant_network.client[14] 	interests_sent[14] 	1800
scalar geant_network.client[17] 	hdistance[17] 	1.3748603351955
scalar geant_network.client[17] 	downloads[17] 	1790
scalar geant_network.client[17] 	avg_time[17] 	0.00969112804
scalar geant_network.client[17] 	interests_sent[17] 	1790
scalar geant_network.client[18] 	hdistance[18] 	1.4334451901566
scalar geant_network.client[18] 	downloads[18] 	1788
scalar geant_network.client[18] 	avg_time[18] 	0.007439127072
scalar geant_network.client[18] 	interests_sent[18] 	1788
scalar geant_network.client[20] 	hdistance[20] 	1.8111658456486
scalar geant_network.client[20] 	downloads[20] 	1827
scalar geant_network.client[20] 	avg_time[20] 	0.010540163743
scalar geant_network.client[20] 	interests_sent[20] 	1827
