version 2
run General-3-20140625-17:43:29-12033
attr D costprobprodcorr0.01
attr F nrr
attr R lru
attr a 1
attr configname General
attr csize 1e3
attr ctlg 1e5
attr datetime 20140625-17:43:29
attr experiment General
attr inifile omnetpp.ini
attr iterationvars "$net=geant_cost, $rep=1, $priceratiovalue=10, $weights=0.333_0.333_0.334, $lambda=100, $a=1, $ctlg=1e5, $F=nrr, $ttl=1000, $D=costprobprodcorr0.01, $xi=0.075, $R=lru, $csize=1e3, $pricebits=0, $mytime=1800"
attr iterationvars2 "$net=geant_cost, $rep=1, $priceratiovalue=10, $weights=0.333_0.333_0.334, $lambda=100, $a=1, $ctlg=1e5, $F=nrr, $ttl=1000, $D=costprobprodcorr0.01, $xi=0.075, $R=lru, $csize=1e3, $pricebits=0, $mytime=1800, $repetition=0"
attr lambda 100
attr measurement "$net=geant_cost, $rep=1, $priceratiovalue=10, $weights=0.333_0.333_0.334, $lambda=100, $a=1, $ctlg=1e5, $F=nrr, $ttl=1000, $D=costprobprodcorr0.01, $xi=0.075, $R=lru, $csize=1e3, $pricebits=0, $mytime=1800"
attr mytime 1800
attr net geant_cost
attr network "networks.${net=geant_cost, abilene_cost}_network"
attr pricebits 0
attr priceratiovalue 10
attr processid 12033
attr rep 1
attr repetition 0
attr replication #0
attr resultdir results
attr runnumber 3
attr seedset 1
attr ttl 1000
attr weights 0.333_0.333_0.334
attr xi 0.075

scalar . 	a 	1
scalar . 	csize 	1e3
scalar . 	ctlg 	1e5
scalar . 	lambda 	100
scalar . 	mytime 	1800
scalar . 	pricebits 	0
scalar . 	priceratiovalue 	10
scalar . 	rep 	1
scalar . 	ttl 	1000
scalar . 	xi 	0.075
scalar geant_cost_network.content_distribution 	repo-0 	22
scalar geant_cost_network.content_distribution 	repo-1 	23
scalar geant_cost_network.content_distribution 	repo-2 	24
scalar geant_cost_network.content_distribution 	client-0 	20
scalar geant_cost_network.content_distribution 	client-1 	10
scalar geant_cost_network.content_distribution 	client-2 	12
scalar geant_cost_network.content_distribution 	client-3 	9
scalar geant_cost_network.content_distribution 	client-4 	5
scalar geant_cost_network.content_distribution 	repo-0_card 	33396
scalar geant_cost_network.content_distribution 	repo-1_card 	33039
scalar geant_cost_network.content_distribution 	repo-2_card 	33565
scalar geant_cost_network.statistics 	repo_popularity[0] 	0.28686251265602
scalar geant_cost_network.statistics 	repo_popularity[1] 	0.2886063426465
scalar geant_cost_network.statistics 	repo_popularity[2] 	0.42453114469748
scalar geant_cost_network.statistics 	stabilization_time 	36060
scalar geant_cost_network.node[7].face$o[4].channel 	price[7] 	0
scalar geant_cost_network.node[7].face$o[4].channel 	represented_price[7] 	0
scalar geant_cost_network.node[8].face$o[3].channel 	price[8] 	0
scalar geant_cost_network.node[8].face$o[3].channel 	represented_price[8] 	0
scalar geant_cost_network.node[21].face$o[5].channel 	price[21] 	0
scalar geant_cost_network.node[21].face$o[5].channel 	represented_price[21] 	0
scalar geant_cost_network.node[22].face$o[1].channel 	price[22] 	0
scalar geant_cost_network.node[22].face$o[1].channel 	represented_price[22] 	0
scalar geant_cost_network.node[23].face$o[1].channel 	price[23] 	1
scalar geant_cost_network.node[23].face$o[1].channel 	represented_price[23] 	1
scalar geant_cost_network.node[24].face$o[1].channel 	price[24] 	10
scalar geant_cost_network.node[24].face$o[1].channel 	represented_price[24] 	10
scalar geant_cost_network.statistics 	p_hit 	0.09965231946659
scalar geant_cost_network.statistics 	interests 	146582.84
scalar geant_cost_network.statistics 	data 	110569.6
scalar geant_cost_network.statistics 	hdistance 	3.6978245262251
scalar geant_cost_network.statistics 	avg_time 	0.007147087169
scalar geant_cost_network.statistics 	downloads 	893839
scalar geant_cost_network.statistics 	total_cost 	1485131
scalar geant_cost_network.statistics 	total_replicas 	100000
scalar geant_cost_network.statistics 	inner_hit 	0.41474471353342
scalar geant_cost_network.statistics 	interests_sent 	900331
scalar geant_cost_network.node[0].core_layer 	interests[0] 	0
scalar geant_cost_network.node[0].core_layer 	data[0] 	0
scalar geant_cost_network.node[0].core_layer 	repo_int[0] 	523124
scalar geant_cost_network.node[0].content_store 	p_hit[0] 	-nan
scalar geant_cost_network.node[0].content_store 	hits[0] 	0
scalar geant_cost_network.node[0].content_store 	misses[0] 	0
scalar geant_cost_network.node[0].content_store 	decision_yes[0] 	0
scalar geant_cost_network.node[0].content_store 	decision_no[0] 	0
scalar geant_cost_network.node[0].content_store 	decision_ratio[0] 	0
scalar geant_cost_network.node[0].content_store 	correction_factor[0] 	0.013699385593096
scalar geant_cost_network.node[0].content_store 	xi[0] 	0.075
scalar geant_cost_network.node[1].core_layer 	interests[1] 	0
scalar geant_cost_network.node[1].core_layer 	data[1] 	0
scalar geant_cost_network.node[1].content_store 	p_hit[1] 	-nan
scalar geant_cost_network.node[1].content_store 	hits[1] 	0
scalar geant_cost_network.node[1].content_store 	misses[1] 	0
scalar geant_cost_network.node[1].content_store 	decision_yes[1] 	0
scalar geant_cost_network.node[1].content_store 	decision_no[1] 	0
scalar geant_cost_network.node[1].content_store 	decision_ratio[1] 	0
scalar geant_cost_network.node[1].content_store 	correction_factor[1] 	0.013699385593096
scalar geant_cost_network.node[1].content_store 	xi[1] 	0.075
scalar geant_cost_network.node[2].core_layer 	interests[2] 	0
scalar geant_cost_network.node[2].core_layer 	data[2] 	0
scalar geant_cost_network.node[2].content_store 	p_hit[2] 	-nan
scalar geant_cost_network.node[2].content_store 	hits[2] 	0
scalar geant_cost_network.node[2].content_store 	misses[2] 	0
scalar geant_cost_network.node[2].content_store 	decision_yes[2] 	0
scalar geant_cost_network.node[2].content_store 	decision_no[2] 	0
scalar geant_cost_network.node[2].content_store 	decision_ratio[2] 	0
scalar geant_cost_network.node[2].content_store 	correction_factor[2] 	0.013699385593096
scalar geant_cost_network.node[2].content_store 	xi[2] 	0.075
scalar geant_cost_network.node[3].core_layer 	interests[3] 	274909
scalar geant_cost_network.node[3].core_layer 	data[3] 	248091
scalar geant_cost_network.node[3].content_store 	p_hit[3] 	0.097552280936601
scalar geant_cost_network.node[3].content_store 	hits[3] 	26818
scalar geant_cost_network.node[3].content_store 	misses[3] 	248091
scalar geant_cost_network.node[3].content_store 	decision_yes[3] 	1330
scalar geant_cost_network.node[3].content_store 	decision_no[3] 	246761
scalar geant_cost_network.node[3].content_store 	decision_ratio[3] 	0.0053609361081216
scalar geant_cost_network.node[3].content_store 	correction_factor[3] 	0.013699385593096
scalar geant_cost_network.node[3].content_store 	xi[3] 	0.075
scalar geant_cost_network.node[4].core_layer 	interests[4] 	316854
scalar geant_cost_network.node[4].core_layer 	data[4] 	304250
scalar geant_cost_network.node[4].content_store 	p_hit[4] 	0.039573431296433
scalar geant_cost_network.node[4].content_store 	hits[4] 	12539
scalar geant_cost_network.node[4].content_store 	misses[4] 	304315
scalar geant_cost_network.node[4].content_store 	decision_yes[4] 	1619
scalar geant_cost_network.node[4].content_store 	decision_no[4] 	302631
scalar geant_cost_network.node[4].content_store 	decision_ratio[4] 	0.0053212818405916
scalar geant_cost_network.node[4].content_store 	correction_factor[4] 	0.013699385593096
scalar geant_cost_network.node[4].content_store 	xi[4] 	0.075
scalar geant_cost_network.node[5].core_layer 	interests[5] 	207210
scalar geant_cost_network.node[5].core_layer 	data[5] 	179234
scalar geant_cost_network.node[5].content_store 	p_hit[5] 	0.12469475411418
scalar geant_cost_network.node[5].content_store 	hits[5] 	25838
scalar geant_cost_network.node[5].content_store 	misses[5] 	181372
scalar geant_cost_network.node[5].content_store 	decision_yes[5] 	771
scalar geant_cost_network.node[5].content_store 	decision_no[5] 	178463
scalar geant_cost_network.node[5].content_store 	decision_ratio[5] 	0.00430163919792
scalar geant_cost_network.node[5].content_store 	correction_factor[5] 	0.013699385593096
scalar geant_cost_network.node[5].content_store 	xi[5] 	0.075
scalar geant_cost_network.node[6].core_layer 	interests[6] 	101884
scalar geant_cost_network.node[6].core_layer 	data[6] 	84456
scalar geant_cost_network.node[6].content_store 	p_hit[6] 	0.17105728082918
scalar geant_cost_network.node[6].content_store 	hits[6] 	17428
scalar geant_cost_network.node[6].content_store 	misses[6] 	84456
scalar geant_cost_network.node[6].content_store 	decision_yes[6] 	340
scalar geant_cost_network.node[6].content_store 	decision_no[6] 	84116
scalar geant_cost_network.node[6].content_store 	decision_ratio[6] 	0.0040257648953301
scalar geant_cost_network.node[6].content_store 	correction_factor[6] 	0.013699385593096
scalar geant_cost_network.node[6].content_store 	xi[6] 	0.075
scalar geant_cost_network.node[7].core_layer 	interests[7] 	347878
scalar geant_cost_network.node[7].core_layer 	data[7] 	332575
scalar geant_cost_network.node[7].content_store 	p_hit[7] 	0.043972312132414
scalar geant_cost_network.node[7].content_store 	hits[7] 	15297
scalar geant_cost_network.node[7].content_store 	misses[7] 	332581
scalar geant_cost_network.node[7].content_store 	decision_yes[7] 	715
scalar geant_cost_network.node[7].content_store 	decision_no[7] 	331860
scalar geant_cost_network.node[7].content_store 	decision_ratio[7] 	0.0021498910020296
scalar geant_cost_network.node[7].content_store 	correction_factor[7] 	0.013699385593096
scalar geant_cost_network.node[7].content_store 	xi[7] 	0.075
scalar geant_cost_network.node[8].core_layer 	interests[8] 	285562
scalar geant_cost_network.node[8].core_layer 	data[8] 	253541
scalar geant_cost_network.node[8].content_store 	p_hit[8] 	0.11213326703133
scalar geant_cost_network.node[8].content_store 	hits[8] 	32021
scalar geant_cost_network.node[8].content_store 	misses[8] 	253541
scalar geant_cost_network.node[8].content_store 	decision_yes[8] 	1805
scalar geant_cost_network.node[8].content_store 	decision_no[8] 	251736
scalar geant_cost_network.node[8].content_store 	decision_ratio[8] 	0.007119164158854
scalar geant_cost_network.node[8].content_store 	correction_factor[8] 	0.013699385593096
scalar geant_cost_network.node[8].content_store 	xi[8] 	0.075
scalar geant_cost_network.node[9].core_layer 	interests[9] 	426602
scalar geant_cost_network.node[9].core_layer 	data[9] 	359983
scalar geant_cost_network.node[9].content_store 	p_hit[9] 	0.14840999338962
scalar geant_cost_network.node[9].content_store 	hits[9] 	63312
scalar geant_cost_network.node[9].content_store 	misses[9] 	363290
scalar geant_cost_network.node[9].content_store 	decision_yes[9] 	2002
scalar geant_cost_network.node[9].content_store 	decision_no[9] 	357981
scalar geant_cost_network.node[9].content_store 	decision_ratio[9] 	0.0055613737315373
scalar geant_cost_network.node[9].content_store 	correction_factor[9] 	0.013699385593096
scalar geant_cost_network.node[9].content_store 	xi[9] 	0.075
scalar geant_cost_network.node[10].core_layer 	interests[10] 	188646
scalar geant_cost_network.node[10].core_layer 	data[10] 	175662
scalar geant_cost_network.node[10].content_store 	p_hit[10] 	0.060754004855656
scalar geant_cost_network.node[10].content_store 	hits[10] 	11461
scalar geant_cost_network.node[10].content_store 	misses[10] 	177185
scalar geant_cost_network.node[10].content_store 	decision_yes[10] 	838
scalar geant_cost_network.node[10].content_store 	decision_no[10] 	174824
scalar geant_cost_network.node[10].content_store 	decision_ratio[10] 	0.0047705252131935
scalar geant_cost_network.node[10].content_store 	correction_factor[10] 	0.013699385593096
scalar geant_cost_network.node[10].content_store 	xi[10] 	0.075
scalar geant_cost_network.node[11].core_layer 	interests[11] 	0
scalar geant_cost_network.node[11].core_layer 	data[11] 	0
scalar geant_cost_network.node[11].content_store 	p_hit[11] 	-nan
scalar geant_cost_network.node[11].content_store 	hits[11] 	0
scalar geant_cost_network.node[11].content_store 	misses[11] 	0
scalar geant_cost_network.node[11].content_store 	decision_yes[11] 	0
scalar geant_cost_network.node[11].content_store 	decision_no[11] 	0
scalar geant_cost_network.node[11].content_store 	decision_ratio[11] 	0
scalar geant_cost_network.node[11].content_store 	correction_factor[11] 	0.013699385593096
scalar geant_cost_network.node[11].content_store 	xi[11] 	0.075
scalar geant_cost_network.node[12].core_layer 	interests[12] 	330443
scalar geant_cost_network.node[12].core_layer 	data[12] 	316067
scalar geant_cost_network.node[12].content_store 	p_hit[12] 	0.030350166291917
scalar geant_cost_network.node[12].content_store 	hits[12] 	10029
scalar geant_cost_network.node[12].content_store 	misses[12] 	320414
scalar geant_cost_network.node[12].content_store 	decision_yes[12] 	1641
scalar geant_cost_network.node[12].content_store 	decision_no[12] 	314426
scalar geant_cost_network.node[12].content_store 	decision_ratio[12] 	0.0051919371525658
scalar geant_cost_network.node[12].content_store 	correction_factor[12] 	0.013699385593096
scalar geant_cost_network.node[12].content_store 	xi[12] 	0.075
scalar geant_cost_network.node[13].core_layer 	interests[13] 	6454
scalar geant_cost_network.node[13].core_layer 	data[13] 	6454
scalar geant_cost_network.node[13].content_store 	p_hit[13] 	0
scalar geant_cost_network.node[13].content_store 	hits[13] 	0
scalar geant_cost_network.node[13].content_store 	misses[13] 	6454
scalar geant_cost_network.node[13].content_store 	decision_yes[13] 	0
scalar geant_cost_network.node[13].content_store 	decision_no[13] 	6454
scalar geant_cost_network.node[13].content_store 	decision_ratio[13] 	0
scalar geant_cost_network.node[13].content_store 	correction_factor[13] 	0.013699385593096
scalar geant_cost_network.node[13].content_store 	xi[13] 	0.075
scalar geant_cost_network.node[14].core_layer 	interests[14] 	78101
scalar geant_cost_network.node[14].core_layer 	data[14] 	67374
scalar geant_cost_network.node[14].content_store 	p_hit[14] 	0.13734779324208
scalar geant_cost_network.node[14].content_store 	hits[14] 	10727
scalar geant_cost_network.node[14].content_store 	misses[14] 	67374
scalar geant_cost_network.node[14].content_store 	decision_yes[14] 	435
scalar geant_cost_network.node[14].content_store 	decision_no[14] 	66939
scalar geant_cost_network.node[14].content_store 	decision_ratio[14] 	0.0064564965713777
scalar geant_cost_network.node[14].content_store 	correction_factor[14] 	0.013699385593096
scalar geant_cost_network.node[14].content_store 	xi[14] 	0.075
scalar geant_cost_network.node[15].core_layer 	interests[15] 	0
scalar geant_cost_network.node[15].core_layer 	data[15] 	0
scalar geant_cost_network.node[15].content_store 	p_hit[15] 	-nan
scalar geant_cost_network.node[15].content_store 	hits[15] 	0
scalar geant_cost_network.node[15].content_store 	misses[15] 	0
scalar geant_cost_network.node[15].content_store 	decision_yes[15] 	0
scalar geant_cost_network.node[15].content_store 	decision_no[15] 	0
scalar geant_cost_network.node[15].content_store 	decision_ratio[15] 	0
scalar geant_cost_network.node[15].content_store 	correction_factor[15] 	0.013699385593096
scalar geant_cost_network.node[15].content_store 	xi[15] 	0.075
scalar geant_cost_network.node[16].core_layer 	interests[16] 	0
scalar geant_cost_network.node[16].core_layer 	data[16] 	0
scalar geant_cost_network.node[16].content_store 	p_hit[16] 	-nan
scalar geant_cost_network.node[16].content_store 	hits[16] 	0
scalar geant_cost_network.node[16].content_store 	misses[16] 	0
scalar geant_cost_network.node[16].content_store 	decision_yes[16] 	0
scalar geant_cost_network.node[16].content_store 	decision_no[16] 	0
scalar geant_cost_network.node[16].content_store 	decision_ratio[16] 	0
scalar geant_cost_network.node[16].content_store 	correction_factor[16] 	0.013699385593096
scalar geant_cost_network.node[16].content_store 	xi[16] 	0.075
scalar geant_cost_network.node[17].core_layer 	interests[17] 	0
scalar geant_cost_network.node[17].core_layer 	data[17] 	0
scalar geant_cost_network.node[17].content_store 	p_hit[17] 	-nan
scalar geant_cost_network.node[17].content_store 	hits[17] 	0
scalar geant_cost_network.node[17].content_store 	misses[17] 	0
scalar geant_cost_network.node[17].content_store 	decision_yes[17] 	0
scalar geant_cost_network.node[17].content_store 	decision_no[17] 	0
scalar geant_cost_network.node[17].content_store 	decision_ratio[17] 	0
scalar geant_cost_network.node[17].content_store 	correction_factor[17] 	0.013699385593096
scalar geant_cost_network.node[17].content_store 	xi[17] 	0.075
scalar geant_cost_network.node[18].core_layer 	interests[18] 	140993
scalar geant_cost_network.node[18].core_layer 	data[18] 	135344
scalar geant_cost_network.node[18].content_store 	p_hit[18] 	0.039895597653784
scalar geant_cost_network.node[18].content_store 	hits[18] 	5625
scalar geant_cost_network.node[18].content_store 	misses[18] 	135368
scalar geant_cost_network.node[18].content_store 	decision_yes[18] 	346
scalar geant_cost_network.node[18].content_store 	decision_no[18] 	134998
scalar geant_cost_network.node[18].content_store 	decision_ratio[18] 	0.0025564487528077
scalar geant_cost_network.node[18].content_store 	correction_factor[18] 	0.013699385593096
scalar geant_cost_network.node[18].content_store 	xi[18] 	0.075
scalar geant_cost_network.node[19].core_layer 	interests[19] 	0
scalar geant_cost_network.node[19].core_layer 	data[19] 	0
scalar geant_cost_network.node[19].content_store 	p_hit[19] 	-nan
scalar geant_cost_network.node[19].content_store 	hits[19] 	0
scalar geant_cost_network.node[19].content_store 	misses[19] 	0
scalar geant_cost_network.node[19].content_store 	decision_yes[19] 	0
scalar geant_cost_network.node[19].content_store 	decision_no[19] 	0
scalar geant_cost_network.node[19].content_store 	decision_ratio[19] 	0
scalar geant_cost_network.node[19].content_store 	correction_factor[19] 	0.013699385593096
scalar geant_cost_network.node[19].content_store 	xi[19] 	0.075
scalar geant_cost_network.node[20].core_layer 	interests[20] 	202660
scalar geant_cost_network.node[20].core_layer 	data[20] 	165753
scalar geant_cost_network.node[20].content_store 	p_hit[20] 	0.1790831935261
scalar geant_cost_network.node[20].content_store 	hits[20] 	36293
scalar geant_cost_network.node[20].content_store 	misses[20] 	166367
scalar geant_cost_network.node[20].content_store 	decision_yes[20] 	801
scalar geant_cost_network.node[20].content_store 	decision_no[20] 	164952
scalar geant_cost_network.node[20].content_store 	decision_ratio[20] 	0.0048324917196069
scalar geant_cost_network.node[20].content_store 	correction_factor[20] 	0.013699385593096
scalar geant_cost_network.node[20].content_store 	xi[20] 	0.075
scalar geant_cost_network.node[21].core_layer 	interests[21] 	233251
scalar geant_cost_network.node[21].core_layer 	data[21] 	135456
scalar geant_cost_network.node[21].content_store 	p_hit[21] 	0.41926937076368
scalar geant_cost_network.node[21].content_store 	hits[21] 	97795
scalar geant_cost_network.node[21].content_store 	misses[21] 	135456
scalar geant_cost_network.node[21].content_store 	decision_yes[21] 	2241
scalar geant_cost_network.node[21].content_store 	decision_no[21] 	133215
scalar geant_cost_network.node[21].content_store 	decision_ratio[21] 	0.016544117647059
scalar geant_cost_network.node[21].content_store 	correction_factor[21] 	0.013699385593096
scalar geant_cost_network.node[21].content_store 	xi[21] 	0.075
scalar geant_cost_network.node[22].core_layer 	interests[22] 	257097
scalar geant_cost_network.node[22].core_layer 	repo_load[22] 	257097
scalar geant_cost_network.node[22].core_layer 	data[22] 	0
scalar geant_cost_network.node[22].content_store 	p_hit[22] 	0
scalar geant_cost_network.node[22].content_store 	hits[22] 	0
scalar geant_cost_network.node[22].content_store 	misses[22] 	257097
scalar geant_cost_network.node[22].content_store 	decision_yes[22] 	0
scalar geant_cost_network.node[22].content_store 	decision_no[22] 	257097
scalar geant_cost_network.node[22].content_store 	decision_ratio[22] 	0
scalar geant_cost_network.node[23].core_layer 	interests[23] 	130571
scalar geant_cost_network.node[23].core_layer 	repo_load[23] 	130571
scalar geant_cost_network.node[23].core_layer 	data[23] 	0
scalar geant_cost_network.node[23].content_store 	p_hit[23] 	0
scalar geant_cost_network.node[23].content_store 	hits[23] 	0
scalar geant_cost_network.node[23].content_store 	misses[23] 	130571
scalar geant_cost_network.node[23].content_store 	decision_yes[23] 	0
scalar geant_cost_network.node[23].content_store 	decision_no[23] 	130571
scalar geant_cost_network.node[23].content_store 	decision_ratio[23] 	0
scalar geant_cost_network.node[24].core_layer 	interests[24] 	135456
scalar geant_cost_network.node[24].core_layer 	repo_load[24] 	135456
scalar geant_cost_network.node[24].core_layer 	data[24] 	0
scalar geant_cost_network.node[24].content_store 	p_hit[24] 	0
scalar geant_cost_network.node[24].content_store 	hits[24] 	0
scalar geant_cost_network.node[24].content_store 	misses[24] 	135456
scalar geant_cost_network.node[24].content_store 	decision_yes[24] 	0
scalar geant_cost_network.node[24].content_store 	decision_no[24] 	135456
scalar geant_cost_network.node[24].content_store 	decision_ratio[24] 	0
scalar geant_cost_network.client[5] 	hdistance[5] 	3.3307762875748
scalar geant_cost_network.client[5] 	downloads[5] 	177679
scalar geant_cost_network.client[5] 	avg_time[5] 	0.009907908466
scalar geant_cost_network.client[5] 	interests_sent[5] 	179797
scalar geant_cost_network.client[9] 	hdistance[9] 	3.449269119531
scalar geant_cost_network.client[9] 	downloads[9] 	178757
scalar geant_cost_network.client[9] 	avg_time[9] 	0.005357771245
scalar geant_cost_network.client[9] 	interests_sent[9] 	179943
scalar geant_cost_network.client[10] 	hdistance[10] 	4.4374720007168
scalar geant_cost_network.client[10] 	downloads[10] 	178576
scalar geant_cost_network.client[10] 	avg_time[10] 	0.007300912768
scalar geant_cost_network.client[10] 	interests_sent[10] 	180099
scalar geant_cost_network.client[12] 	hdistance[12] 	3.6583162125699
scalar geant_cost_network.client[12] 	downloads[12] 	178633
scalar geant_cost_network.client[12] 	avg_time[12] 	0.006152240953
scalar geant_cost_network.client[12] 	interests_sent[12] 	179684
scalar geant_cost_network.client[20] 	hdistance[20] 	3.6132890107329
scalar geant_cost_network.client[20] 	downloads[20] 	180194
scalar geant_cost_network.client[20] 	avg_time[20] 	0.007016602413
scalar geant_cost_network.client[20] 	interests_sent[20] 	180808
