version 2
run General-0-20140520-12:30:13-30407
attr D costprobtailperf
attr F nrr
attr R lru
attr a 1
attr configname General
attr csize 10
attr ctlg 90
attr datetime 20140520-12:30:13
attr experiment General
attr inifile omnetpp.ini
attr iterationvars "$net=one_cache_scenario_3_links, $rep=1, $priceratiovalue=10, $weights=0.5_0.25_0.25, $a=1, $ctlg=90, $F=nrr, $ttl=1000, $D=costprobtailperf, $xi=1, $R=lru, $csize=10, $pricebits=0"
attr iterationvars2 "$net=one_cache_scenario_3_links, $rep=1, $priceratiovalue=10, $weights=0.5_0.25_0.25, $a=1, $ctlg=90, $F=nrr, $ttl=1000, $D=costprobtailperf, $xi=1, $R=lru, $csize=10, $pricebits=0, $repetition=0"
attr measurement "$net=one_cache_scenario_3_links, $rep=1, $priceratiovalue=10, $weights=0.5_0.25_0.25, $a=1, $ctlg=90, $F=nrr, $ttl=1000, $D=costprobtailperf, $xi=1, $R=lru, $csize=10, $pricebits=0"
attr net one_cache_scenario_3_links
attr network networks.${net=one_cache_scenario_3_links}_network
attr pricebits 0
attr priceratiovalue 10
attr processid 30407
attr rep 1
attr repetition 0
attr replication #0
attr resultdir results
attr runnumber 0
attr seedset 1
attr ttl 1000
attr weights 0.5_0.25_0.25
attr xi 1

scalar . 	a 	1
scalar . 	csize 	10
scalar . 	ctlg 	90
scalar . 	pricebits 	0
scalar . 	priceratiovalue 	10
scalar . 	rep 	1
scalar . 	ttl 	1000
scalar . 	xi 	1
scalar one_cache_scenario_3_links_network.content_distribution 	repo-0 	4
scalar one_cache_scenario_3_links_network.content_distribution 	repo-1 	5
scalar one_cache_scenario_3_links_network.content_distribution 	repo-2 	6
scalar one_cache_scenario_3_links_network.content_distribution 	client-0 	0
scalar one_cache_scenario_3_links_network.content_distribution 	repo-0_card 	44
scalar one_cache_scenario_3_links_network.content_distribution 	repo-1_card 	23
scalar one_cache_scenario_3_links_network.content_distribution 	repo-2_card 	23
scalar one_cache_scenario_3_links_network.node[1].face$o[2].channel 	price[1] 	0
scalar one_cache_scenario_3_links_network.node[1].face$o[2].channel 	represented_price[1] 	0
scalar one_cache_scenario_3_links_network.node[2].face$o[2].channel 	price[2] 	0
scalar one_cache_scenario_3_links_network.node[2].face$o[2].channel 	represented_price[2] 	0
scalar one_cache_scenario_3_links_network.node[3].face$o[2].channel 	price[3] 	0
scalar one_cache_scenario_3_links_network.node[3].face$o[2].channel 	represented_price[3] 	0
scalar one_cache_scenario_3_links_network.node[4].face$o[1].channel 	price[4] 	0
scalar one_cache_scenario_3_links_network.node[4].face$o[1].channel 	represented_price[4] 	0
scalar one_cache_scenario_3_links_network.node[5].face$o[1].channel 	price[5] 	1
scalar one_cache_scenario_3_links_network.node[5].face$o[1].channel 	represented_price[5] 	1
scalar one_cache_scenario_3_links_network.node[6].face$o[1].channel 	price[6] 	10
scalar one_cache_scenario_3_links_network.node[6].face$o[1].channel 	represented_price[6] 	10
scalar one_cache_scenario_3_links_network.statistics 	p_hit 	0.23976556889018
scalar one_cache_scenario_3_links_network.statistics 	interests 	52114
scalar one_cache_scenario_3_links_network.statistics 	data 	26412.571428571
scalar one_cache_scenario_3_links_network.statistics 	hdistance 	1.0276693902507
scalar one_cache_scenario_3_links_network.statistics 	avg_time 	0
scalar one_cache_scenario_3_links_network.statistics 	downloads 	179910
scalar one_cache_scenario_3_links_network.statistics 	total_cost 	129732
scalar one_cache_scenario_3_links_network.statistics 	total_replicas 	90
scalar one_cache_scenario_3_links_network.statistics 	repo_popularity[0] 	0.28125292295838
scalar one_cache_scenario_3_links_network.statistics 	repo_popularity[1] 	0.24549381553314
scalar one_cache_scenario_3_links_network.statistics 	repo_popularity[2] 	0.47325326150848
scalar one_cache_scenario_3_links_network.statistics 	interests_sent 	179910
