version 2
run General-3-20150729-17:43:34-32528
attr C 1e4
attr D lce
attr F spr
attr R lru_repr
attr a 1
attr brates 0.3_0.7_1.5_2.5_3.5
attr configname General
attr ctlg 1e6
attr datetime 20150729-17:43:34
attr experiment General
attr inifile omnetpp.ini
attr iterationvars "$net=abilene_nodelay, $rep=0, $lambda=100, $a=1, $ctlg=1e6, $brates=0.3_0.7_1.5_2.5_3.5, $F=spr, $ttl=1000, $D=lce, $R=lru_repr, $proactiveprob=0.001, $C=1e4, $window=60, $variance=0.05, $mytime=1800000"
attr iterationvars2 "$net=abilene_nodelay, $rep=0, $lambda=100, $a=1, $ctlg=1e6, $brates=0.3_0.7_1.5_2.5_3.5, $F=spr, $ttl=1000, $D=lce, $R=lru_repr, $proactiveprob=0.001, $C=1e4, $window=60, $variance=0.05, $mytime=1800000, $repetition=0"
attr lambda 100
attr measurement "$net=abilene_nodelay, $rep=0, $lambda=100, $a=1, $ctlg=1e6, $brates=0.3_0.7_1.5_2.5_3.5, $F=spr, $ttl=1000, $D=lce, $R=lru_repr, $proactiveprob=0.001, $C=1e4, $window=60, $variance=0.05, $mytime=1800000"
attr mytime 1800000
attr net abilene_nodelay
attr network networks.${net=abilene_nodelay}_network
attr proactiveprob 0.001
attr processid 32528
attr rep 0
attr repetition 0
attr replication #0
attr resultdir results
attr runnumber 3
attr seedset 0
attr ttl 1000
attr variance 0.05
attr window 60

scalar . 	C 	1e4
scalar . 	a 	1
scalar . 	ctlg 	1e6
scalar . 	lambda 	100
scalar . 	mytime 	1800000
scalar . 	proactiveprob 	0.001
scalar . 	rep 	0
scalar . 	ttl 	1000
scalar . 	variance 	0.05
scalar . 	window 	60
scalar abilene_nodelay_network.content_distribution 	repo-0 	5
scalar abilene_nodelay_network.content_distribution 	client-0 	8
scalar abilene_nodelay_network.content_distribution 	repo-0_card 	1000000
scalar abilene_nodelay_network.content_distribution 	repo-0_price 	0
scalar abilene_nodelay_network.statistics 	stabilization_time 	36060
scalar abilene_nodelay_network.statistics 	p_hit 	0.44533033228749
scalar abilene_nodelay_network.statistics 	interests 	28032894
scalar abilene_nodelay_network.statistics 	data 	11661747
scalar abilene_nodelay_network.statistics 	hdistance 	0.94800263465955
scalar abilene_nodelay_network.statistics 	avg_time 	0
scalar abilene_nodelay_network.statistics 	downloads 	179977715
scalar abilene_nodelay_network.statistics 	total_cost 	0
scalar abilene_nodelay_network.statistics 	total_replicas 	1000000
scalar abilene_nodelay_network.statistics 	"representations_downloaded 0.695497:0.0656091:0.0366901:0.0281132:0.17409:" 	0
scalar abilene_nodelay_network.statistics 	"slots_per_representation 100:233:500:833:1167:" 	0
scalar abilene_nodelay_network.statistics 	inner_hit 	0.7624164802848
scalar abilene_nodelay_network.statistics 	execution_time 	5706
scalar abilene_nodelay_network.node[0].core_layer 	interests[0] 	0
scalar abilene_nodelay_network.node[0].core_layer 	data[0] 	0
scalar abilene_nodelay_network.node[0].core_layer 	slots_sent[face$o[1]->client[0]] 	0
scalar abilene_nodelay_network.node[0].core_layer 	slots_sent[face$o[2]->node[1]] 	0
scalar abilene_nodelay_network.node[0].core_layer 	slots_sent[face$o[3]->node[10]] 	0
scalar abilene_nodelay_network.node[0].content_store 	p_hit[0] 	-nan
scalar abilene_nodelay_network.node[0].content_store 	hits[0] 	0
scalar abilene_nodelay_network.node[0].content_store 	misses[0] 	0
scalar abilene_nodelay_network.node[0].content_store 	decision_yes[0] 	0
scalar abilene_nodelay_network.node[0].content_store 	decision_no[0] 	0
scalar abilene_nodelay_network.node[0].content_store 	decision_ratio[0] 	0
scalar abilene_nodelay_network.node[0].content_store 	"representation_breakdown[0] 0:0:0:0:0:" 	0
scalar abilene_nodelay_network.node[1].core_layer 	interests[1] 	0
scalar abilene_nodelay_network.node[1].core_layer 	data[1] 	0
scalar abilene_nodelay_network.node[1].core_layer 	slots_sent[face$o[1]->client[1]] 	0
scalar abilene_nodelay_network.node[1].core_layer 	slots_sent[face$o[2]->node[0]] 	0
scalar abilene_nodelay_network.node[1].core_layer 	slots_sent[face$o[3]->node[10]] 	0
scalar abilene_nodelay_network.node[1].core_layer 	slots_sent[face$o[4]->node[2]] 	0
scalar abilene_nodelay_network.node[1].content_store 	p_hit[1] 	-nan
scalar abilene_nodelay_network.node[1].content_store 	hits[1] 	0
scalar abilene_nodelay_network.node[1].content_store 	misses[1] 	0
scalar abilene_nodelay_network.node[1].content_store 	decision_yes[1] 	0
scalar abilene_nodelay_network.node[1].content_store 	decision_no[1] 	0
scalar abilene_nodelay_network.node[1].content_store 	decision_ratio[1] 	0
scalar abilene_nodelay_network.node[1].content_store 	"representation_breakdown[1] 0:0:0:0:0:" 	0
scalar abilene_nodelay_network.node[2].core_layer 	interests[2] 	0
scalar abilene_nodelay_network.node[2].core_layer 	data[2] 	0
scalar abilene_nodelay_network.node[2].core_layer 	slots_sent[face$o[1]->client[2]] 	0
scalar abilene_nodelay_network.node[2].core_layer 	slots_sent[face$o[2]->node[1]] 	0
scalar abilene_nodelay_network.node[2].core_layer 	slots_sent[face$o[3]->node[3]] 	0
scalar abilene_nodelay_network.node[2].core_layer 	slots_sent[face$o[4]->node[8]] 	0
scalar abilene_nodelay_network.node[2].content_store 	p_hit[2] 	-nan
scalar abilene_nodelay_network.node[2].content_store 	hits[2] 	0
scalar abilene_nodelay_network.node[2].content_store 	misses[2] 	0
scalar abilene_nodelay_network.node[2].content_store 	decision_yes[2] 	0
scalar abilene_nodelay_network.node[2].content_store 	decision_no[2] 	0
scalar abilene_nodelay_network.node[2].content_store 	decision_ratio[2] 	0
scalar abilene_nodelay_network.node[2].content_store 	"representation_breakdown[2] 0:0:0:0:0:" 	0
scalar abilene_nodelay_network.node[3].core_layer 	interests[3] 	0
scalar abilene_nodelay_network.node[3].core_layer 	data[3] 	0
scalar abilene_nodelay_network.node[3].core_layer 	slots_sent[face$o[1]->client[3]] 	0
scalar abilene_nodelay_network.node[3].core_layer 	slots_sent[face$o[2]->node[2]] 	0
scalar abilene_nodelay_network.node[3].core_layer 	slots_sent[face$o[3]->node[4]] 	0
scalar abilene_nodelay_network.node[3].core_layer 	slots_sent[face$o[4]->node[7]] 	0
scalar abilene_nodelay_network.node[3].content_store 	p_hit[3] 	-nan
scalar abilene_nodelay_network.node[3].content_store 	hits[3] 	0
scalar abilene_nodelay_network.node[3].content_store 	misses[3] 	0
scalar abilene_nodelay_network.node[3].content_store 	decision_yes[3] 	0
scalar abilene_nodelay_network.node[3].content_store 	decision_no[3] 	0
scalar abilene_nodelay_network.node[3].content_store 	decision_ratio[3] 	0
scalar abilene_nodelay_network.node[3].content_store 	"representation_breakdown[3] 0:0:0:0:0:" 	0
scalar abilene_nodelay_network.node[4].core_layer 	interests[4] 	0
scalar abilene_nodelay_network.node[4].core_layer 	data[4] 	0
scalar abilene_nodelay_network.node[4].core_layer 	slots_sent[face$o[1]->client[4]] 	0
scalar abilene_nodelay_network.node[4].core_layer 	slots_sent[face$o[2]->node[3]] 	0
scalar abilene_nodelay_network.node[4].core_layer 	slots_sent[face$o[3]->node[5]] 	0
scalar abilene_nodelay_network.node[4].content_store 	p_hit[4] 	-nan
scalar abilene_nodelay_network.node[4].content_store 	hits[4] 	0
scalar abilene_nodelay_network.node[4].content_store 	misses[4] 	0
scalar abilene_nodelay_network.node[4].content_store 	decision_yes[4] 	0
scalar abilene_nodelay_network.node[4].content_store 	decision_no[4] 	0
scalar abilene_nodelay_network.node[4].content_store 	decision_ratio[4] 	0
scalar abilene_nodelay_network.node[4].content_store 	"representation_breakdown[4] 0:0:0:0:0:" 	0
scalar abilene_nodelay_network.node[5].core_layer 	interests[5] 	42759739
scalar abilene_nodelay_network.node[5].core_layer 	repo_load[5] 	42759739
scalar abilene_nodelay_network.node[5].core_layer 	data[5] 	0
scalar abilene_nodelay_network.node[5].core_layer 	slots_sent[face$o[1]->client[5]] 	0
scalar abilene_nodelay_network.node[5].core_layer 	slots_sent[face$o[2]->node[4]] 	0
scalar abilene_nodelay_network.node[5].core_layer 	slots_sent[face$o[3]->node[6]] 	4301588525
scalar abilene_nodelay_network.node[5].content_store 	p_hit[5] 	0
scalar abilene_nodelay_network.node[5].content_store 	hits[5] 	0
scalar abilene_nodelay_network.node[5].content_store 	misses[5] 	42759739
scalar abilene_nodelay_network.node[5].content_store 	decision_yes[5] 	0
scalar abilene_nodelay_network.node[5].content_store 	decision_no[5] 	42759739
scalar abilene_nodelay_network.node[5].content_store 	decision_ratio[5] 	0
scalar abilene_nodelay_network.node[5].content_store 	"representation_breakdown[5] 0:0:0:0:0:" 	0
scalar abilene_nodelay_network.node[6].core_layer 	interests[6] 	42759739
scalar abilene_nodelay_network.node[6].core_layer 	data[6] 	42759739
scalar abilene_nodelay_network.node[6].core_layer 	slots_sent[face$o[1]->client[6]] 	0
scalar abilene_nodelay_network.node[6].core_layer 	slots_sent[face$o[2]->node[5]] 	0
scalar abilene_nodelay_network.node[6].core_layer 	slots_sent[face$o[3]->node[7]] 	4301588525
scalar abilene_nodelay_network.node[6].content_store 	p_hit[6] 	0
scalar abilene_nodelay_network.node[6].content_store 	hits[6] 	0
scalar abilene_nodelay_network.node[6].content_store 	misses[6] 	42759739
scalar abilene_nodelay_network.node[6].content_store 	decision_yes[6] 	42759739
scalar abilene_nodelay_network.node[6].content_store 	decision_no[6] 	0
scalar abilene_nodelay_network.node[6].content_store 	decision_ratio[6] 	1
scalar abilene_nodelay_network.node[6].content_store 	"representation_breakdown[6] 115884:219:16:6:15:" 	0
scalar abilene_nodelay_network.node[7].core_layer 	interests[7] 	42759739
scalar abilene_nodelay_network.node[7].core_layer 	data[7] 	42759739
scalar abilene_nodelay_network.node[7].core_layer 	slots_sent[face$o[1]->client[7]] 	0
scalar abilene_nodelay_network.node[7].core_layer 	slots_sent[face$o[2]->node[3]] 	0
scalar abilene_nodelay_network.node[7].core_layer 	slots_sent[face$o[3]->node[6]] 	0
scalar abilene_nodelay_network.node[7].core_layer 	slots_sent[face$o[4]->node[8]] 	4301588525
scalar abilene_nodelay_network.node[7].content_store 	p_hit[7] 	0
scalar abilene_nodelay_network.node[7].content_store 	hits[7] 	0
scalar abilene_nodelay_network.node[7].content_store 	misses[7] 	42759739
scalar abilene_nodelay_network.node[7].content_store 	decision_yes[7] 	42759739
scalar abilene_nodelay_network.node[7].content_store 	decision_no[7] 	0
scalar abilene_nodelay_network.node[7].content_store 	decision_ratio[7] 	1
scalar abilene_nodelay_network.node[7].content_store 	"representation_breakdown[7] 115884:219:16:6:15:" 	0
scalar abilene_nodelay_network.node[8].core_layer 	interests[8] 	180082617
scalar abilene_nodelay_network.node[8].core_layer 	data[8] 	42759739
scalar abilene_nodelay_network.node[8].core_layer 	slots_sent[face$o[1]->client[8]] 	59350066379
scalar abilene_nodelay_network.node[8].core_layer 	slots_sent[face$o[2]->node[2]] 	0
scalar abilene_nodelay_network.node[8].core_layer 	slots_sent[face$o[3]->node[7]] 	0
scalar abilene_nodelay_network.node[8].core_layer 	slots_sent[face$o[4]->node[9]] 	0
scalar abilene_nodelay_network.node[8].content_store 	p_hit[8] 	0.76255487779812
scalar abilene_nodelay_network.node[8].content_store 	hits[8] 	137322878
scalar abilene_nodelay_network.node[8].content_store 	misses[8] 	42759739
scalar abilene_nodelay_network.node[8].content_store 	decision_yes[8] 	42759739
scalar abilene_nodelay_network.node[8].content_store 	decision_no[8] 	0
scalar abilene_nodelay_network.node[8].content_store 	decision_ratio[8] 	1
scalar abilene_nodelay_network.node[8].content_store 	"representation_breakdown[8] 115884:219:16:6:15:" 	0
scalar abilene_nodelay_network.node[8].proactive_component 	hdistance[8].proactive_component 	4
scalar abilene_nodelay_network.node[8].proactive_component 	downloads[8].proactive_component 	106952
scalar abilene_nodelay_network.node[8].proactive_component 	avg_time[8].proactive_component 	0
scalar abilene_nodelay_network.node[9].core_layer 	interests[9] 	0
scalar abilene_nodelay_network.node[9].core_layer 	data[9] 	0
scalar abilene_nodelay_network.node[9].core_layer 	slots_sent[face$o[1]->client[9]] 	0
scalar abilene_nodelay_network.node[9].core_layer 	slots_sent[face$o[2]->node[10]] 	0
scalar abilene_nodelay_network.node[9].core_layer 	slots_sent[face$o[3]->node[8]] 	0
scalar abilene_nodelay_network.node[9].content_store 	p_hit[9] 	-nan
scalar abilene_nodelay_network.node[9].content_store 	hits[9] 	0
scalar abilene_nodelay_network.node[9].content_store 	misses[9] 	0
scalar abilene_nodelay_network.node[9].content_store 	decision_yes[9] 	0
scalar abilene_nodelay_network.node[9].content_store 	decision_no[9] 	0
scalar abilene_nodelay_network.node[9].content_store 	decision_ratio[9] 	0
scalar abilene_nodelay_network.node[9].content_store 	"representation_breakdown[9] 0:0:0:0:0:" 	0
scalar abilene_nodelay_network.node[10].core_layer 	interests[10] 	0
scalar abilene_nodelay_network.node[10].core_layer 	data[10] 	0
scalar abilene_nodelay_network.node[10].core_layer 	slots_sent[face$o[1]->client[10]] 	0
scalar abilene_nodelay_network.node[10].core_layer 	slots_sent[face$o[2]->node[0]] 	0
scalar abilene_nodelay_network.node[10].core_layer 	slots_sent[face$o[3]->node[1]] 	0
scalar abilene_nodelay_network.node[10].core_layer 	slots_sent[face$o[4]->node[9]] 	0
scalar abilene_nodelay_network.node[10].content_store 	p_hit[10] 	-nan
scalar abilene_nodelay_network.node[10].content_store 	hits[10] 	0
scalar abilene_nodelay_network.node[10].content_store 	misses[10] 	0
scalar abilene_nodelay_network.node[10].content_store 	decision_yes[10] 	0
scalar abilene_nodelay_network.node[10].content_store 	decision_no[10] 	0
scalar abilene_nodelay_network.node[10].content_store 	decision_ratio[10] 	0
scalar abilene_nodelay_network.node[10].content_store 	"representation_breakdown[10] 0:0:0:0:0:" 	0
scalar abilene_nodelay_network.client[8] 	hdistance[8].real 	0.94800263465955
scalar abilene_nodelay_network.client[8] 	downloads[8].real 	179977715
scalar abilene_nodelay_network.client[8] 	avg_time[8].real 	0
