version 2
run General-439-20140421-20:11:23-15110
attr D fix0.1
attr F nrr
attr R lru
attr a 0.8
attr configname General
attr csize 10
attr ctlg 10^3
attr datetime 20140421-20:11:23
attr experiment General
attr inifile omnetpp.ini
attr iterationvars "$net=simple_scenario, $rep=13, $priceratiovalue=4, $a=0.8, $ctlg=10^3, $F=nrr, $ttl=1000, $D=fix0.1, $R=lru, $csize=10"
attr iterationvars2 "$net=simple_scenario, $rep=13, $priceratiovalue=4, $a=0.8, $ctlg=10^3, $F=nrr, $ttl=1000, $D=fix0.1, $R=lru, $csize=10, $repetition=0"
attr measurement "$net=simple_scenario, $rep=13, $priceratiovalue=4, $a=0.8, $ctlg=10^3, $F=nrr, $ttl=1000, $D=fix0.1, $R=lru, $csize=10"
attr net simple_scenario
attr network networks.${net=simple_scenario}_network
attr priceratiovalue 4
attr processid 15110
attr rep 13
attr repetition 0
attr replication #0
attr resultdir results
attr runnumber 439
attr seedset 13
attr ttl 1000

scalar . 	a 	0.8
scalar . 	csize 	10
scalar . 	priceratiovalue 	4
scalar . 	rep 	13
scalar . 	ttl 	1000
scalar simple_scenario_network.content_distribution 	repo-0 	3
scalar simple_scenario_network.content_distribution 	repo-1 	4
scalar simple_scenario_network.content_distribution 	client-0 	0
scalar simple_scenario_network.content_distribution 	repo-0_card 	509
scalar simple_scenario_network.content_distribution 	repo-1_card 	491
scalar simple_scenario_network.statistics 	p_hit 	0.078913129560839
scalar simple_scenario_network.statistics 	interests 	95459.4
scalar simple_scenario_network.statistics 	data 	59621.4
scalar simple_scenario_network.statistics 	hdistance 	2.4534404821697
scalar simple_scenario_network.statistics 	avg_time 	0.001998038614
scalar simple_scenario_network.statistics 	downloads 	179190
scalar simple_scenario_network.statistics 	total_cost 	66914
scalar simple_scenario_network.node[0].core_layer 	interests[0] 	179190
scalar simple_scenario_network.node[0].core_layer 	data[0] 	156582
scalar simple_scenario_network.node[0].core_layer 	repo_int[0] 	141525
scalar simple_scenario_network.node[0].content_store 	p_hit[0] 	0.12616775489704
scalar simple_scenario_network.node[0].content_store 	hits[0] 	22608
scalar simple_scenario_network.node[0].content_store 	misses[0] 	156582
scalar simple_scenario_network.node[1].core_layer 	interests[1] 	87892
scalar simple_scenario_network.node[1].core_layer 	data[1] 	77176
scalar simple_scenario_network.node[1].content_store 	p_hit[1] 	0.12192235925909
scalar simple_scenario_network.node[1].content_store 	hits[1] 	10716
scalar simple_scenario_network.node[1].content_store 	misses[1] 	77176
scalar simple_scenario_network.node[2].core_layer 	interests[2] 	68690
scalar simple_scenario_network.node[2].core_layer 	data[2] 	64349
scalar simple_scenario_network.node[2].content_store 	p_hit[2] 	0.063196971902751
scalar simple_scenario_network.node[2].content_store 	hits[2] 	4341
scalar simple_scenario_network.node[2].content_store 	misses[2] 	64349
scalar simple_scenario_network.node[3].core_layer 	interests[3] 	77176
scalar simple_scenario_network.node[3].core_layer 	repo_load[3] 	77176
scalar simple_scenario_network.node[3].core_layer 	data[3] 	0
scalar simple_scenario_network.node[3].content_store 	p_hit[3] 	0
scalar simple_scenario_network.node[3].content_store 	hits[3] 	0
scalar simple_scenario_network.node[3].content_store 	misses[3] 	77176
scalar simple_scenario_network.node[4].core_layer 	interests[4] 	64349
scalar simple_scenario_network.node[4].core_layer 	repo_load[4] 	64349
scalar simple_scenario_network.node[4].core_layer 	data[4] 	0
scalar simple_scenario_network.node[4].content_store 	p_hit[4] 	0
scalar simple_scenario_network.node[4].content_store 	hits[4] 	0
scalar simple_scenario_network.node[4].content_store 	misses[4] 	64349
scalar simple_scenario_network.client[0] 	hdistance[0] 	2.4534404821697
scalar simple_scenario_network.client[0] 	downloads[0] 	179190
scalar simple_scenario_network.client[0] 	avg_time[0] 	0.001998038614
