version 2
run General-474-20140424-12:48:14-13152
attr D costprob0.01
attr F nrr
attr R lru
attr a 0.8
attr configname General
attr csize 10
attr ctlg 10^3
attr datetime 20140424-12:48:14
attr experiment General
attr inifile omnetpp.ini
attr iterationvars "$net=simple_scenario, $rep=3, $priceratiovalue=3, $a=0.8, $ctlg=10^3, $F=nrr, $ttl=1000, $D=costprob0.01, $R=lru, $csize=10"
attr iterationvars2 "$net=simple_scenario, $rep=3, $priceratiovalue=3, $a=0.8, $ctlg=10^3, $F=nrr, $ttl=1000, $D=costprob0.01, $R=lru, $csize=10, $repetition=0"
attr measurement "$net=simple_scenario, $rep=3, $priceratiovalue=3, $a=0.8, $ctlg=10^3, $F=nrr, $ttl=1000, $D=costprob0.01, $R=lru, $csize=10"
attr net simple_scenario
attr network networks.${net=simple_scenario}_network
attr priceratiovalue 3
attr processid 13152
attr rep 3
attr repetition 0
attr replication #0
attr resultdir results
attr runnumber 474
attr seedset 3
attr ttl 1000

scalar . 	a 	0.8
scalar . 	csize 	10
scalar . 	priceratiovalue 	3
scalar . 	rep 	3
scalar . 	ttl 	1000
scalar simple_scenario_network.content_distribution 	repo-0 	3
scalar simple_scenario_network.content_distribution 	repo-1 	4
scalar simple_scenario_network.content_distribution 	client-0 	0
scalar simple_scenario_network.content_distribution 	repo-0_card 	524
scalar simple_scenario_network.content_distribution 	repo-1_card 	476
scalar simple_scenario_network.statistics 	p_hit 	0.11263243375951
scalar simple_scenario_network.statistics 	interests 	95311.8
scalar simple_scenario_network.statistics 	data 	59258
scalar simple_scenario_network.statistics 	hdistance 	2.3458478948244
scalar simple_scenario_network.statistics 	avg_time 	0.001998094198
scalar simple_scenario_network.statistics 	downloads 	180270
scalar simple_scenario_network.statistics 	total_cost 	60746
scalar simple_scenario_network.node[0].core_layer 	interests[0] 	180269
scalar simple_scenario_network.node[0].core_layer 	data[0] 	169697
scalar simple_scenario_network.node[0].core_layer 	repo_int[0] 	126593
scalar simple_scenario_network.node[0].content_store 	p_hit[0] 	0.058645690606815
scalar simple_scenario_network.node[0].content_store 	hits[0] 	10572
scalar simple_scenario_network.node[0].content_store 	misses[0] 	169697
scalar simple_scenario_network.node[1].core_layer 	interests[1] 	95723
scalar simple_scenario_network.node[1].core_layer 	data[1] 	68396
scalar simple_scenario_network.node[1].content_store 	p_hit[1] 	0.28547997868851
scalar simple_scenario_network.node[1].content_store 	hits[1] 	27327
scalar simple_scenario_network.node[1].content_store 	misses[1] 	68396
scalar simple_scenario_network.node[2].core_layer 	interests[2] 	73974
scalar simple_scenario_network.node[2].core_layer 	data[2] 	58197
scalar simple_scenario_network.node[2].content_store 	p_hit[2] 	0.21327763808906
scalar simple_scenario_network.node[2].content_store 	hits[2] 	15777
scalar simple_scenario_network.node[2].content_store 	misses[2] 	58197
scalar simple_scenario_network.node[3].core_layer 	interests[3] 	68396
scalar simple_scenario_network.node[3].core_layer 	repo_load[3] 	68396
scalar simple_scenario_network.node[3].core_layer 	data[3] 	0
scalar simple_scenario_network.node[3].content_store 	p_hit[3] 	0
scalar simple_scenario_network.node[3].content_store 	hits[3] 	0
scalar simple_scenario_network.node[3].content_store 	misses[3] 	68396
scalar simple_scenario_network.node[4].core_layer 	interests[4] 	58197
scalar simple_scenario_network.node[4].core_layer 	repo_load[4] 	58197
scalar simple_scenario_network.node[4].core_layer 	data[4] 	0
scalar simple_scenario_network.node[4].content_store 	p_hit[4] 	0
scalar simple_scenario_network.node[4].content_store 	hits[4] 	0
scalar simple_scenario_network.node[4].content_store 	misses[4] 	58197
scalar simple_scenario_network.client[0] 	hdistance[0] 	2.3458478948244
scalar simple_scenario_network.client[0] 	downloads[0] 	180270
scalar simple_scenario_network.client[0] 	avg_time[0] 	0.001998094198
