version 2
run General-17-20140626-16:44:23-16669
attr D lce
attr F nrr
attr R lru
attr a 1
attr configname General
attr csize 1e3
attr ctlg 1e5
attr datetime 20140626-16:44:23
attr experiment General
attr inifile omnetpp.ini
attr iterationvars "$net=abilene_cost, $rep=7, $priceratiovalue=10, $weights=0.333_0.333_0.334, $lambda=100, $a=1, $ctlg=1e5, $F=nrr, $ttl=1000, $D=lce, $xi=1, $R=lru, $csize=1e3, $pricebits=0, $mytime=1800"
attr iterationvars2 "$net=abilene_cost, $rep=7, $priceratiovalue=10, $weights=0.333_0.333_0.334, $lambda=100, $a=1, $ctlg=1e5, $F=nrr, $ttl=1000, $D=lce, $xi=1, $R=lru, $csize=1e3, $pricebits=0, $mytime=1800, $repetition=0"
attr lambda 100
attr measurement "$net=abilene_cost, $rep=7, $priceratiovalue=10, $weights=0.333_0.333_0.334, $lambda=100, $a=1, $ctlg=1e5, $F=nrr, $ttl=1000, $D=lce, $xi=1, $R=lru, $csize=1e3, $pricebits=0, $mytime=1800"
attr mytime 1800
attr net abilene_cost
attr network "networks.${net=geant_cost, abilene_cost}_network"
attr pricebits 0
attr priceratiovalue 10
attr processid 16669
attr rep 7
attr repetition 0
attr replication #0
attr resultdir results
attr runnumber 17
attr seedset 7
attr ttl 1000
attr weights 0.333_0.333_0.334
attr xi 1

scalar . 	a 	1
scalar . 	csize 	1e3
scalar . 	ctlg 	1e5
scalar . 	lambda 	100
scalar . 	mytime 	1800
scalar . 	pricebits 	0
scalar . 	priceratiovalue 	10
scalar . 	rep 	7
scalar . 	ttl 	1000
scalar . 	xi 	1
scalar abilene_cost_network.content_distribution 	repo-0 	11
scalar abilene_cost_network.content_distribution 	repo-1 	12
scalar abilene_cost_network.content_distribution 	repo-2 	13
scalar abilene_cost_network.content_distribution 	client-0 	5
scalar abilene_cost_network.content_distribution 	client-1 	0
scalar abilene_cost_network.content_distribution 	client-2 	9
scalar abilene_cost_network.content_distribution 	repo-0_card 	33104
scalar abilene_cost_network.content_distribution 	repo-1_card 	33508
scalar abilene_cost_network.content_distribution 	repo-2_card 	33388
scalar abilene_cost_network.statistics 	repo_popularity[0] 	0.34609068621501
scalar abilene_cost_network.statistics 	repo_popularity[1] 	0.29388785961082
scalar abilene_cost_network.statistics 	repo_popularity[2] 	0.36002145417417
scalar abilene_cost_network.statistics 	stabilization_time 	63.5
scalar abilene_cost_network.node[1].face$o[4].channel 	price[1] 	0
scalar abilene_cost_network.node[1].face$o[4].channel 	represented_price[1] 	0
scalar abilene_cost_network.node[7].face$o[4].channel 	price[7] 	0
scalar abilene_cost_network.node[7].face$o[4].channel 	represented_price[7] 	0
scalar abilene_cost_network.node[10].face$o[4].channel 	price[10] 	0
scalar abilene_cost_network.node[10].face$o[4].channel 	represented_price[10] 	0
scalar abilene_cost_network.node[11].face$o[1].channel 	price[11] 	0
scalar abilene_cost_network.node[11].face$o[1].channel 	represented_price[11] 	0
scalar abilene_cost_network.node[12].face$o[1].channel 	price[12] 	1
scalar abilene_cost_network.node[12].face$o[1].channel 	represented_price[12] 	1
scalar abilene_cost_network.node[13].face$o[1].channel 	price[13] 	10
scalar abilene_cost_network.node[13].face$o[1].channel 	represented_price[13] 	10
scalar abilene_cost_network.statistics 	p_hit 	0.12298240906531
scalar abilene_cost_network.statistics 	interests 	126976.92857143
scalar abilene_cost_network.statistics 	data 	88450
scalar abilene_cost_network.statistics 	hdistance 	2.8912140168084
scalar abilene_cost_network.statistics 	avg_time 	0.011183003616
scalar abilene_cost_network.statistics 	downloads 	538866
scalar abilene_cost_network.statistics 	total_cost 	1226999
scalar abilene_cost_network.statistics 	total_replicas 	100000
scalar abilene_cost_network.statistics 	inner_hit 	0.40570754139248
scalar abilene_cost_network.statistics 	interests_sent 	539378
scalar abilene_cost_network.node[0].core_layer 	interests[0] 	184097
scalar abilene_cost_network.node[0].core_layer 	data[0] 	129081
scalar abilene_cost_network.node[0].core_layer 	repo_int[0] 	320244
scalar abilene_cost_network.node[0].content_store 	p_hit[0] 	0.29790816797666
scalar abilene_cost_network.node[0].content_store 	hits[0] 	54844
scalar abilene_cost_network.node[0].content_store 	misses[0] 	129253
scalar abilene_cost_network.node[0].content_store 	decision_yes[0] 	129081
scalar abilene_cost_network.node[0].content_store 	decision_no[0] 	0
scalar abilene_cost_network.node[0].content_store 	decision_ratio[0] 	1
scalar abilene_cost_network.node[1].core_layer 	interests[1] 	197075
scalar abilene_cost_network.node[1].core_layer 	data[1] 	192441
scalar abilene_cost_network.node[1].content_store 	p_hit[1] 	0.023513890650767
scalar abilene_cost_network.node[1].content_store 	hits[1] 	4634
scalar abilene_cost_network.node[1].content_store 	misses[1] 	192441
scalar abilene_cost_network.node[1].content_store 	decision_yes[1] 	192371
scalar abilene_cost_network.node[1].content_store 	decision_no[1] 	0
scalar abilene_cost_network.node[1].content_store 	decision_ratio[1] 	1
scalar abilene_cost_network.node[2].core_layer 	interests[2] 	121405
scalar abilene_cost_network.node[2].core_layer 	data[2] 	117727
scalar abilene_cost_network.node[2].content_store 	p_hit[2] 	0.030311766401713
scalar abilene_cost_network.node[2].content_store 	hits[2] 	3680
scalar abilene_cost_network.node[2].content_store 	misses[2] 	117725
scalar abilene_cost_network.node[2].content_store 	decision_yes[2] 	117671
scalar abilene_cost_network.node[2].content_store 	decision_no[2] 	0
scalar abilene_cost_network.node[2].content_store 	decision_ratio[2] 	1
scalar abilene_cost_network.node[3].core_layer 	interests[3] 	112942
scalar abilene_cost_network.node[3].core_layer 	data[3] 	112136
scalar abilene_cost_network.node[3].content_store 	p_hit[3] 	0.0071452603991429
scalar abilene_cost_network.node[3].content_store 	hits[3] 	807
scalar abilene_cost_network.node[3].content_store 	misses[3] 	112135
scalar abilene_cost_network.node[3].content_store 	decision_yes[3] 	112126
scalar abilene_cost_network.node[3].content_store 	decision_no[3] 	0
scalar abilene_cost_network.node[3].content_store 	decision_ratio[3] 	1
scalar abilene_cost_network.node[4].core_layer 	interests[4] 	79802
scalar abilene_cost_network.node[4].core_layer 	data[4] 	76513
scalar abilene_cost_network.node[4].content_store 	p_hit[4] 	0.041227036916368
scalar abilene_cost_network.node[4].content_store 	hits[4] 	3290
scalar abilene_cost_network.node[4].content_store 	misses[4] 	76512
scalar abilene_cost_network.node[4].content_store 	decision_yes[4] 	76513
scalar abilene_cost_network.node[4].content_store 	decision_no[4] 	0
scalar abilene_cost_network.node[4].content_store 	decision_ratio[4] 	1
scalar abilene_cost_network.node[5].core_layer 	interests[5] 	180320
scalar abilene_cost_network.node[5].core_layer 	data[5] 	129321
scalar abilene_cost_network.node[5].content_store 	p_hit[5] 	0.28174356699201
scalar abilene_cost_network.node[5].content_store 	hits[5] 	50804
scalar abilene_cost_network.node[5].content_store 	misses[5] 	129516
scalar abilene_cost_network.node[5].content_store 	decision_yes[5] 	129321
scalar abilene_cost_network.node[5].content_store 	decision_no[5] 	0
scalar abilene_cost_network.node[5].content_store 	decision_ratio[5] 	1
scalar abilene_cost_network.node[6].core_layer 	interests[6] 	54221
scalar abilene_cost_network.node[6].core_layer 	data[6] 	42012
scalar abilene_cost_network.node[6].content_store 	p_hit[6] 	0.22517105918371
scalar abilene_cost_network.node[6].content_store 	hits[6] 	12209
scalar abilene_cost_network.node[6].content_store 	misses[6] 	42012
scalar abilene_cost_network.node[6].content_store 	decision_yes[6] 	42012
scalar abilene_cost_network.node[6].content_store 	decision_no[6] 	0
scalar abilene_cost_network.node[6].content_store 	decision_ratio[6] 	1
scalar abilene_cost_network.node[7].core_layer 	interests[7] 	114361
scalar abilene_cost_network.node[7].core_layer 	data[7] 	111257
scalar abilene_cost_network.node[7].content_store 	p_hit[7] 	0.027133375888633
scalar abilene_cost_network.node[7].content_store 	hits[7] 	3103
scalar abilene_cost_network.node[7].content_store 	misses[7] 	111258
scalar abilene_cost_network.node[7].content_store 	decision_yes[7] 	111228
scalar abilene_cost_network.node[7].content_store 	decision_no[7] 	0
scalar abilene_cost_network.node[7].content_store 	decision_ratio[7] 	1
scalar abilene_cost_network.node[8].core_layer 	interests[8] 	61368
scalar abilene_cost_network.node[8].core_layer 	data[8] 	43496
scalar abilene_cost_network.node[8].content_store 	p_hit[8] 	0.29124299309086
scalar abilene_cost_network.node[8].content_store 	hits[8] 	17873
scalar abilene_cost_network.node[8].content_store 	misses[8] 	43495
scalar abilene_cost_network.node[8].content_store 	decision_yes[8] 	43493
scalar abilene_cost_network.node[8].content_store 	decision_no[8] 	0
scalar abilene_cost_network.node[8].content_store 	decision_ratio[8] 	1
scalar abilene_cost_network.node[9].core_layer 	interests[9] 	190489
scalar abilene_cost_network.node[9].core_layer 	data[9] 	128202
scalar abilene_cost_network.node[9].content_store 	p_hit[9] 	0.32622356146549
scalar abilene_cost_network.node[9].content_store 	hits[9] 	62142
scalar abilene_cost_network.node[9].content_store 	misses[9] 	128347
scalar abilene_cost_network.node[9].content_store 	decision_yes[9] 	128195
scalar abilene_cost_network.node[9].content_store 	decision_no[9] 	0
scalar abilene_cost_network.node[9].content_store 	decision_ratio[9] 	1
scalar abilene_cost_network.node[10].core_layer 	interests[10] 	161353
scalar abilene_cost_network.node[10].core_layer 	data[10] 	156114
scalar abilene_cost_network.node[10].content_store 	p_hit[10] 	0.032456787292458
scalar abilene_cost_network.node[10].content_store 	hits[10] 	5237
scalar abilene_cost_network.node[10].content_store 	misses[10] 	156116
scalar abilene_cost_network.node[10].content_store 	decision_yes[10] 	156085
scalar abilene_cost_network.node[10].content_store 	decision_no[10] 	0
scalar abilene_cost_network.node[10].content_store 	decision_ratio[10] 	1
scalar abilene_cost_network.node[11].core_layer 	interests[11] 	107311
scalar abilene_cost_network.node[11].core_layer 	repo_load[11] 	107311
scalar abilene_cost_network.node[11].core_layer 	data[11] 	0
scalar abilene_cost_network.node[11].content_store 	p_hit[11] 	0
scalar abilene_cost_network.node[11].content_store 	hits[11] 	0
scalar abilene_cost_network.node[11].content_store 	misses[11] 	107311
scalar abilene_cost_network.node[11].content_store 	decision_yes[11] 	0
scalar abilene_cost_network.node[11].content_store 	decision_no[11] 	107311
scalar abilene_cost_network.node[11].content_store 	decision_ratio[11] 	0
scalar abilene_cost_network.node[12].core_layer 	interests[12] 	100259
scalar abilene_cost_network.node[12].core_layer 	repo_load[12] 	100259
scalar abilene_cost_network.node[12].core_layer 	data[12] 	0
scalar abilene_cost_network.node[12].content_store 	p_hit[12] 	0
scalar abilene_cost_network.node[12].content_store 	hits[12] 	0
scalar abilene_cost_network.node[12].content_store 	misses[12] 	100259
scalar abilene_cost_network.node[12].content_store 	decision_yes[12] 	0
scalar abilene_cost_network.node[12].content_store 	decision_no[12] 	100259
scalar abilene_cost_network.node[12].content_store 	decision_ratio[12] 	0
scalar abilene_cost_network.node[13].core_layer 	interests[13] 	112674
scalar abilene_cost_network.node[13].core_layer 	repo_load[13] 	112674
scalar abilene_cost_network.node[13].core_layer 	data[13] 	0
scalar abilene_cost_network.node[13].content_store 	p_hit[13] 	0
scalar abilene_cost_network.node[13].content_store 	hits[13] 	0
scalar abilene_cost_network.node[13].content_store 	misses[13] 	112674
scalar abilene_cost_network.node[13].content_store 	decision_yes[13] 	0
scalar abilene_cost_network.node[13].content_store 	decision_no[13] 	112674
scalar abilene_cost_network.node[13].content_store 	decision_ratio[13] 	0
scalar abilene_cost_network.client[0] 	hdistance[0] 	2.6355718414648
scalar abilene_cost_network.client[0] 	downloads[0] 	179569
scalar abilene_cost_network.client[0] 	avg_time[0] 	0.010710122913
scalar abilene_cost_network.client[0] 	interests_sent[0] 	179741
scalar abilene_cost_network.client[5] 	hdistance[5] 	3.6623719082747
scalar abilene_cost_network.client[5] 	downloads[5] 	179754
scalar abilene_cost_network.client[5] 	avg_time[5] 	0.01329775122
scalar abilene_cost_network.client[5] 	interests_sent[5] 	179949
scalar abilene_cost_network.client[9] 	hdistance[9] 	2.3756983006856
scalar abilene_cost_network.client[9] 	downloads[9] 	179543
scalar abilene_cost_network.client[9] 	avg_time[9] 	0.009541136716
scalar abilene_cost_network.client[9] 	interests_sent[9] 	179688
