version 2
run General-33-20140626-18:00:14-10881
attr D lce
attr F nrr
attr R lru
attr a 1
attr configname General
attr csize 1e3
attr ctlg 1e5
attr datetime 20140626-18:00:14
attr experiment General
attr inifile omnetpp.ini
attr iterationvars "$net=abilene_cost, $rep=5, $priceratiovalue=10, $weights=0.333_0.333_0.334, $lambda=100, $a=1, $ctlg=1e5, $F=nrr, $ttl=1000, $D=lce, $xi=1, $R=lru, $csize=1e3, $pricebits=0, $mytime=1800"
attr iterationvars2 "$net=abilene_cost, $rep=5, $priceratiovalue=10, $weights=0.333_0.333_0.334, $lambda=100, $a=1, $ctlg=1e5, $F=nrr, $ttl=1000, $D=lce, $xi=1, $R=lru, $csize=1e3, $pricebits=0, $mytime=1800, $repetition=0"
attr lambda 100
attr measurement "$net=abilene_cost, $rep=5, $priceratiovalue=10, $weights=0.333_0.333_0.334, $lambda=100, $a=1, $ctlg=1e5, $F=nrr, $ttl=1000, $D=lce, $xi=1, $R=lru, $csize=1e3, $pricebits=0, $mytime=1800"
attr mytime 1800
attr net abilene_cost
attr network "networks.${net=geant_cost, abilene_cost}_network"
attr pricebits 0
attr priceratiovalue 10
attr processid 10881
attr rep 5
attr repetition 0
attr replication #0
attr resultdir results
attr runnumber 33
attr seedset 5
attr ttl 1000
attr weights 0.333_0.333_0.334
attr xi 1

scalar . 	a 	1
scalar . 	csize 	1e3
scalar . 	ctlg 	1e5
scalar . 	lambda 	100
scalar . 	mytime 	1800
scalar . 	pricebits 	0
scalar . 	priceratiovalue 	10
scalar . 	rep 	5
scalar . 	ttl 	1000
scalar . 	xi 	1
scalar abilene_cost_network.content_distribution 	repo-0 	11
scalar abilene_cost_network.content_distribution 	repo-1 	12
scalar abilene_cost_network.content_distribution 	repo-2 	13
scalar abilene_cost_network.content_distribution 	client-0 	5
scalar abilene_cost_network.content_distribution 	client-1 	0
scalar abilene_cost_network.content_distribution 	client-2 	9
scalar abilene_cost_network.content_distribution 	repo-0_card 	33102
scalar abilene_cost_network.content_distribution 	repo-1_card 	33495
scalar abilene_cost_network.content_distribution 	repo-2_card 	33403
scalar abilene_cost_network.statistics 	repo_popularity[0] 	0.44346789261525
scalar abilene_cost_network.statistics 	repo_popularity[1] 	0.29134602320581
scalar abilene_cost_network.statistics 	repo_popularity[2] 	0.26518608417894
scalar abilene_cost_network.statistics 	stabilization_time 	63.6
scalar abilene_cost_network.node[1].face$o[4].channel 	price[1] 	0
scalar abilene_cost_network.node[1].face$o[4].channel 	represented_price[1] 	0
scalar abilene_cost_network.node[7].face$o[4].channel 	price[7] 	0
scalar abilene_cost_network.node[7].face$o[4].channel 	represented_price[7] 	0
scalar abilene_cost_network.node[10].face$o[4].channel 	price[10] 	0
scalar abilene_cost_network.node[10].face$o[4].channel 	represented_price[10] 	0
scalar abilene_cost_network.node[11].face$o[1].channel 	price[11] 	0
scalar abilene_cost_network.node[11].face$o[1].channel 	represented_price[11] 	0
scalar abilene_cost_network.node[12].face$o[1].channel 	price[12] 	1
scalar abilene_cost_network.node[12].face$o[1].channel 	represented_price[12] 	1
scalar abilene_cost_network.node[13].face$o[1].channel 	price[13] 	10
scalar abilene_cost_network.node[13].face$o[1].channel 	represented_price[13] 	10
scalar abilene_cost_network.statistics 	p_hit 	0.12360617898726
scalar abilene_cost_network.statistics 	interests 	127001.85714286
scalar abilene_cost_network.statistics 	data 	88420.142857143
scalar abilene_cost_network.statistics 	hdistance 	2.885482742972
scalar abilene_cost_network.statistics 	avg_time 	0.011155889029
scalar abilene_cost_network.statistics 	downloads 	539606
scalar abilene_cost_network.statistics 	total_cost 	1199532
scalar abilene_cost_network.statistics 	total_replicas 	100000
scalar abilene_cost_network.statistics 	inner_hit 	0.40729532288373
scalar abilene_cost_network.statistics 	interests_sent 	540145
scalar abilene_cost_network.node[0].core_layer 	interests[0] 	184005
scalar abilene_cost_network.node[0].core_layer 	data[0] 	129099
scalar abilene_cost_network.node[0].core_layer 	repo_int[0] 	319827
scalar abilene_cost_network.node[0].content_store 	p_hit[0] 	0.29743213499633
scalar abilene_cost_network.node[0].content_store 	hits[0] 	54729
scalar abilene_cost_network.node[0].content_store 	misses[0] 	129276
scalar abilene_cost_network.node[0].content_store 	decision_yes[0] 	129099
scalar abilene_cost_network.node[0].content_store 	decision_no[0] 	0
scalar abilene_cost_network.node[0].content_store 	decision_ratio[0] 	1
scalar abilene_cost_network.node[1].core_layer 	interests[1] 	194891
scalar abilene_cost_network.node[1].core_layer 	data[1] 	190829
scalar abilene_cost_network.node[1].content_store 	p_hit[1] 	0.02084241960891
scalar abilene_cost_network.node[1].content_store 	hits[1] 	4062
scalar abilene_cost_network.node[1].content_store 	misses[1] 	190829
scalar abilene_cost_network.node[1].content_store 	decision_yes[1] 	190774
scalar abilene_cost_network.node[1].content_store 	decision_no[1] 	0
scalar abilene_cost_network.node[1].content_store 	decision_ratio[1] 	1
scalar abilene_cost_network.node[2].core_layer 	interests[2] 	121389
scalar abilene_cost_network.node[2].core_layer 	data[2] 	117888
scalar abilene_cost_network.node[2].content_store 	p_hit[2] 	0.028841163532116
scalar abilene_cost_network.node[2].content_store 	hits[2] 	3501
scalar abilene_cost_network.node[2].content_store 	misses[2] 	117888
scalar abilene_cost_network.node[2].content_store 	decision_yes[2] 	117835
scalar abilene_cost_network.node[2].content_store 	decision_no[2] 	0
scalar abilene_cost_network.node[2].content_store 	decision_ratio[2] 	1
scalar abilene_cost_network.node[3].core_layer 	interests[3] 	113159
scalar abilene_cost_network.node[3].core_layer 	data[3] 	112312
scalar abilene_cost_network.node[3].content_store 	p_hit[3] 	0.0074850431693458
scalar abilene_cost_network.node[3].content_store 	hits[3] 	847
scalar abilene_cost_network.node[3].content_store 	misses[3] 	112312
scalar abilene_cost_network.node[3].content_store 	decision_yes[3] 	112298
scalar abilene_cost_network.node[3].content_store 	decision_no[3] 	0
scalar abilene_cost_network.node[3].content_store 	decision_ratio[3] 	1
scalar abilene_cost_network.node[4].core_layer 	interests[4] 	79648
scalar abilene_cost_network.node[4].core_layer 	data[4] 	76539
scalar abilene_cost_network.node[4].content_store 	p_hit[4] 	0.039034250703094
scalar abilene_cost_network.node[4].content_store 	hits[4] 	3109
scalar abilene_cost_network.node[4].content_store 	misses[4] 	76539
scalar abilene_cost_network.node[4].content_store 	decision_yes[4] 	76539
scalar abilene_cost_network.node[4].content_store 	decision_no[4] 	0
scalar abilene_cost_network.node[4].content_store 	decision_ratio[4] 	1
scalar abilene_cost_network.node[5].core_layer 	interests[5] 	180590
scalar abilene_cost_network.node[5].core_layer 	data[5] 	129567
scalar abilene_cost_network.node[5].content_store 	p_hit[5] 	0.28148845451022
scalar abilene_cost_network.node[5].content_store 	hits[5] 	50834
scalar abilene_cost_network.node[5].content_store 	misses[5] 	129756
scalar abilene_cost_network.node[5].content_store 	decision_yes[5] 	129567
scalar abilene_cost_network.node[5].content_store 	decision_no[5] 	0
scalar abilene_cost_network.node[5].content_store 	decision_ratio[5] 	1
scalar abilene_cost_network.node[6].core_layer 	interests[6] 	54585
scalar abilene_cost_network.node[6].core_layer 	data[6] 	41986
scalar abilene_cost_network.node[6].content_store 	p_hit[6] 	0.23081432628011
scalar abilene_cost_network.node[6].content_store 	hits[6] 	12599
scalar abilene_cost_network.node[6].content_store 	misses[6] 	41986
scalar abilene_cost_network.node[6].content_store 	decision_yes[6] 	41986
scalar abilene_cost_network.node[6].content_store 	decision_no[6] 	0
scalar abilene_cost_network.node[6].content_store 	decision_ratio[6] 	1
scalar abilene_cost_network.node[7].core_layer 	interests[7] 	114438
scalar abilene_cost_network.node[7].core_layer 	data[7] 	111118
scalar abilene_cost_network.node[7].content_store 	p_hit[7] 	0.028985127317849
scalar abilene_cost_network.node[7].content_store 	hits[7] 	3317
scalar abilene_cost_network.node[7].content_store 	misses[7] 	111121
scalar abilene_cost_network.node[7].content_store 	decision_yes[7] 	111084
scalar abilene_cost_network.node[7].content_store 	decision_no[7] 	0
scalar abilene_cost_network.node[7].content_store 	decision_ratio[7] 	1
scalar abilene_cost_network.node[8].core_layer 	interests[8] 	61461
scalar abilene_cost_network.node[8].core_layer 	data[8] 	43127
scalar abilene_cost_network.node[8].content_store 	p_hit[8] 	0.29830298888726
scalar abilene_cost_network.node[8].content_store 	hits[8] 	18334
scalar abilene_cost_network.node[8].content_store 	misses[8] 	43127
scalar abilene_cost_network.node[8].content_store 	decision_yes[8] 	43123
scalar abilene_cost_network.node[8].content_store 	decision_no[8] 	0
scalar abilene_cost_network.node[8].content_store 	decision_ratio[8] 	1
scalar abilene_cost_network.node[9].core_layer 	interests[9] 	190790
scalar abilene_cost_network.node[9].core_layer 	data[9] 	127793
scalar abilene_cost_network.node[9].content_store 	p_hit[9] 	0.32928350542481
scalar abilene_cost_network.node[9].content_store 	hits[9] 	62824
scalar abilene_cost_network.node[9].content_store 	misses[9] 	127966
scalar abilene_cost_network.node[9].content_store 	decision_yes[9] 	127786
scalar abilene_cost_network.node[9].content_store 	decision_no[9] 	0
scalar abilene_cost_network.node[9].content_store 	decision_ratio[9] 	1
scalar abilene_cost_network.node[10].core_layer 	interests[10] 	163243
scalar abilene_cost_network.node[10].core_layer 	data[10] 	157624
scalar abilene_cost_network.node[10].content_store 	p_hit[10] 	0.034421077779752
scalar abilene_cost_network.node[10].content_store 	hits[10] 	5619
scalar abilene_cost_network.node[10].content_store 	misses[10] 	157624
scalar abilene_cost_network.node[10].content_store 	decision_yes[10] 	157592
scalar abilene_cost_network.node[10].content_store 	decision_no[10] 	0
scalar abilene_cost_network.node[10].content_store 	decision_ratio[10] 	1
scalar abilene_cost_network.node[11].core_layer 	interests[11] 	109863
scalar abilene_cost_network.node[11].core_layer 	repo_load[11] 	109863
scalar abilene_cost_network.node[11].core_layer 	data[11] 	0
scalar abilene_cost_network.node[11].content_store 	p_hit[11] 	0
scalar abilene_cost_network.node[11].content_store 	hits[11] 	0
scalar abilene_cost_network.node[11].content_store 	misses[11] 	109863
scalar abilene_cost_network.node[11].content_store 	decision_yes[11] 	0
scalar abilene_cost_network.node[11].content_store 	decision_no[11] 	109863
scalar abilene_cost_network.node[11].content_store 	decision_ratio[11] 	0
scalar abilene_cost_network.node[12].core_layer 	interests[12] 	100012
scalar abilene_cost_network.node[12].core_layer 	repo_load[12] 	100012
scalar abilene_cost_network.node[12].core_layer 	data[12] 	0
scalar abilene_cost_network.node[12].content_store 	p_hit[12] 	0
scalar abilene_cost_network.node[12].content_store 	hits[12] 	0
scalar abilene_cost_network.node[12].content_store 	misses[12] 	100012
scalar abilene_cost_network.node[12].content_store 	decision_yes[12] 	0
scalar abilene_cost_network.node[12].content_store 	decision_no[12] 	100012
scalar abilene_cost_network.node[12].content_store 	decision_ratio[12] 	0
scalar abilene_cost_network.node[13].core_layer 	interests[13] 	109952
scalar abilene_cost_network.node[13].core_layer 	repo_load[13] 	109952
scalar abilene_cost_network.node[13].core_layer 	data[13] 	0
scalar abilene_cost_network.node[13].content_store 	p_hit[13] 	0
scalar abilene_cost_network.node[13].content_store 	hits[13] 	0
scalar abilene_cost_network.node[13].content_store 	misses[13] 	109952
scalar abilene_cost_network.node[13].content_store 	decision_yes[13] 	0
scalar abilene_cost_network.node[13].content_store 	decision_no[13] 	109952
scalar abilene_cost_network.node[13].content_store 	decision_ratio[13] 	0
scalar abilene_cost_network.client[0] 	hdistance[0] 	2.636687206638
scalar abilene_cost_network.client[0] 	downloads[0] 	179812
scalar abilene_cost_network.client[0] 	avg_time[0] 	0.01069838577
scalar abilene_cost_network.client[0] 	interests_sent[0] 	179989
scalar abilene_cost_network.client[5] 	hdistance[5] 	3.6621785190779
scalar abilene_cost_network.client[5] 	downloads[5] 	180104
scalar abilene_cost_network.client[5] 	avg_time[5] 	0.013326127793
scalar abilene_cost_network.client[5] 	interests_sent[5] 	180293
scalar abilene_cost_network.client[9] 	hdistance[9] 	2.3575825031999
scalar abilene_cost_network.client[9] 	downloads[9] 	179690
scalar abilene_cost_network.client[9] 	avg_time[9] 	0.009443153524
scalar abilene_cost_network.client[9] 	interests_sent[9] 	179863
