version 2
run General-17-20140626-16:49:47-7479
attr D lce
attr F nrr
attr R lru
attr a 1
attr configname General
attr csize 1e3
attr ctlg 1e5
attr datetime 20140626-16:49:47
attr experiment General
attr inifile omnetpp.ini
attr iterationvars "$net=abilene_cost, $rep=9, $priceratiovalue=10, $weights=0.333_0.333_0.334, $lambda=100, $a=1, $ctlg=1e5, $F=nrr, $ttl=1000, $D=lce, $xi=1, $R=lru, $csize=1e3, $pricebits=0, $mytime=1800"
attr iterationvars2 "$net=abilene_cost, $rep=9, $priceratiovalue=10, $weights=0.333_0.333_0.334, $lambda=100, $a=1, $ctlg=1e5, $F=nrr, $ttl=1000, $D=lce, $xi=1, $R=lru, $csize=1e3, $pricebits=0, $mytime=1800, $repetition=0"
attr lambda 100
attr measurement "$net=abilene_cost, $rep=9, $priceratiovalue=10, $weights=0.333_0.333_0.334, $lambda=100, $a=1, $ctlg=1e5, $F=nrr, $ttl=1000, $D=lce, $xi=1, $R=lru, $csize=1e3, $pricebits=0, $mytime=1800"
attr mytime 1800
attr net abilene_cost
attr network "networks.${net=geant_cost, abilene_cost}_network"
attr pricebits 0
attr priceratiovalue 10
attr processid 7479
attr rep 9
attr repetition 0
attr replication #0
attr resultdir results
attr runnumber 17
attr seedset 9
attr ttl 1000
attr weights 0.333_0.333_0.334
attr xi 1

scalar . 	a 	1
scalar . 	csize 	1e3
scalar . 	ctlg 	1e5
scalar . 	lambda 	100
scalar . 	mytime 	1800
scalar . 	pricebits 	0
scalar . 	priceratiovalue 	10
scalar . 	rep 	9
scalar . 	ttl 	1000
scalar . 	xi 	1
scalar abilene_cost_network.content_distribution 	repo-0 	11
scalar abilene_cost_network.content_distribution 	repo-1 	12
scalar abilene_cost_network.content_distribution 	repo-2 	13
scalar abilene_cost_network.content_distribution 	client-0 	5
scalar abilene_cost_network.content_distribution 	client-1 	0
scalar abilene_cost_network.content_distribution 	client-2 	9
scalar abilene_cost_network.content_distribution 	repo-0_card 	33407
scalar abilene_cost_network.content_distribution 	repo-1_card 	33169
scalar abilene_cost_network.content_distribution 	repo-2_card 	33424
scalar abilene_cost_network.statistics 	repo_popularity[0] 	0.34242359259278
scalar abilene_cost_network.statistics 	repo_popularity[1] 	0.29137742219581
scalar abilene_cost_network.statistics 	repo_popularity[2] 	0.36619898521141
scalar abilene_cost_network.statistics 	stabilization_time 	63.7
scalar abilene_cost_network.node[1].face$o[4].channel 	price[1] 	0
scalar abilene_cost_network.node[1].face$o[4].channel 	represented_price[1] 	0
scalar abilene_cost_network.node[7].face$o[4].channel 	price[7] 	0
scalar abilene_cost_network.node[7].face$o[4].channel 	represented_price[7] 	0
scalar abilene_cost_network.node[10].face$o[4].channel 	price[10] 	0
scalar abilene_cost_network.node[10].face$o[4].channel 	represented_price[10] 	0
scalar abilene_cost_network.node[11].face$o[1].channel 	price[11] 	0
scalar abilene_cost_network.node[11].face$o[1].channel 	represented_price[11] 	0
scalar abilene_cost_network.node[12].face$o[1].channel 	price[12] 	1
scalar abilene_cost_network.node[12].face$o[1].channel 	represented_price[12] 	1
scalar abilene_cost_network.node[13].face$o[1].channel 	price[13] 	10
scalar abilene_cost_network.node[13].face$o[1].channel 	represented_price[13] 	10
scalar abilene_cost_network.statistics 	p_hit 	0.12358728283347
scalar abilene_cost_network.statistics 	interests 	127079.07142857
scalar abilene_cost_network.statistics 	data 	88472.928571429
scalar abilene_cost_network.statistics 	hdistance 	2.8865024158233
scalar abilene_cost_network.statistics 	avg_time 	0.011164290185
scalar abilene_cost_network.statistics 	downloads 	539939
scalar abilene_cost_network.statistics 	total_cost 	1223276
scalar abilene_cost_network.statistics 	total_replicas 	100000
scalar abilene_cost_network.statistics 	inner_hit 	0.40722748310457
scalar abilene_cost_network.statistics 	interests_sent 	540479
scalar abilene_cost_network.node[0].core_layer 	interests[0] 	184295
scalar abilene_cost_network.node[0].core_layer 	data[0] 	129325
scalar abilene_cost_network.node[0].core_layer 	repo_int[0] 	320061
scalar abilene_cost_network.node[0].content_store 	p_hit[0] 	0.29732765403294
scalar abilene_cost_network.node[0].content_store 	hits[0] 	54796
scalar abilene_cost_network.node[0].content_store 	misses[0] 	129499
scalar abilene_cost_network.node[0].content_store 	decision_yes[0] 	129324
scalar abilene_cost_network.node[0].content_store 	decision_no[0] 	0
scalar abilene_cost_network.node[0].content_store 	decision_ratio[0] 	1
scalar abilene_cost_network.node[1].core_layer 	interests[1] 	197068
scalar abilene_cost_network.node[1].core_layer 	data[1] 	192579
scalar abilene_cost_network.node[1].content_store 	p_hit[1] 	0.022778939249396
scalar abilene_cost_network.node[1].content_store 	hits[1] 	4489
scalar abilene_cost_network.node[1].content_store 	misses[1] 	192579
scalar abilene_cost_network.node[1].content_store 	decision_yes[1] 	192512
scalar abilene_cost_network.node[1].content_store 	decision_no[1] 	0
scalar abilene_cost_network.node[1].content_store 	decision_ratio[1] 	1
scalar abilene_cost_network.node[2].core_layer 	interests[2] 	121590
scalar abilene_cost_network.node[2].core_layer 	data[2] 	118033
scalar abilene_cost_network.node[2].content_store 	p_hit[2] 	0.02922115305535
scalar abilene_cost_network.node[2].content_store 	hits[2] 	3553
scalar abilene_cost_network.node[2].content_store 	misses[2] 	118037
scalar abilene_cost_network.node[2].content_store 	decision_yes[2] 	117983
scalar abilene_cost_network.node[2].content_store 	decision_no[2] 	0
scalar abilene_cost_network.node[2].content_store 	decision_ratio[2] 	1
scalar abilene_cost_network.node[3].core_layer 	interests[3] 	113122
scalar abilene_cost_network.node[3].core_layer 	data[3] 	112221
scalar abilene_cost_network.node[3].content_store 	p_hit[3] 	0.0079560120931384
scalar abilene_cost_network.node[3].content_store 	hits[3] 	900
scalar abilene_cost_network.node[3].content_store 	misses[3] 	112222
scalar abilene_cost_network.node[3].content_store 	decision_yes[3] 	112210
scalar abilene_cost_network.node[3].content_store 	decision_no[3] 	0
scalar abilene_cost_network.node[3].content_store 	decision_ratio[3] 	1
scalar abilene_cost_network.node[4].core_layer 	interests[4] 	79739
scalar abilene_cost_network.node[4].core_layer 	data[4] 	76387
scalar abilene_cost_network.node[4].content_store 	p_hit[4] 	0.042012064359974
scalar abilene_cost_network.node[4].content_store 	hits[4] 	3350
scalar abilene_cost_network.node[4].content_store 	misses[4] 	76389
scalar abilene_cost_network.node[4].content_store 	decision_yes[4] 	76387
scalar abilene_cost_network.node[4].content_store 	decision_no[4] 	0
scalar abilene_cost_network.node[4].content_store 	decision_ratio[4] 	1
scalar abilene_cost_network.node[5].core_layer 	interests[5] 	180368
scalar abilene_cost_network.node[5].core_layer 	data[5] 	129354
scalar abilene_cost_network.node[5].content_store 	p_hit[5] 	0.28174066353233
scalar abilene_cost_network.node[5].content_store 	hits[5] 	50817
scalar abilene_cost_network.node[5].content_store 	misses[5] 	129551
scalar abilene_cost_network.node[5].content_store 	decision_yes[5] 	129354
scalar abilene_cost_network.node[5].content_store 	decision_no[5] 	0
scalar abilene_cost_network.node[5].content_store 	decision_ratio[5] 	1
scalar abilene_cost_network.node[6].core_layer 	interests[6] 	54388
scalar abilene_cost_network.node[6].core_layer 	data[6] 	41986
scalar abilene_cost_network.node[6].content_store 	p_hit[6] 	0.22802824152387
scalar abilene_cost_network.node[6].content_store 	hits[6] 	12402
scalar abilene_cost_network.node[6].content_store 	misses[6] 	41986
scalar abilene_cost_network.node[6].content_store 	decision_yes[6] 	41986
scalar abilene_cost_network.node[6].content_store 	decision_no[6] 	0
scalar abilene_cost_network.node[6].content_store 	decision_ratio[6] 	1
scalar abilene_cost_network.node[7].core_layer 	interests[7] 	114126
scalar abilene_cost_network.node[7].core_layer 	data[7] 	110858
scalar abilene_cost_network.node[7].content_store 	p_hit[7] 	0.028617492946393
scalar abilene_cost_network.node[7].content_store 	hits[7] 	3266
scalar abilene_cost_network.node[7].content_store 	misses[7] 	110860
scalar abilene_cost_network.node[7].content_store 	decision_yes[7] 	110827
scalar abilene_cost_network.node[7].content_store 	decision_no[7] 	0
scalar abilene_cost_network.node[7].content_store 	decision_ratio[7] 	1
scalar abilene_cost_network.node[8].core_layer 	interests[8] 	61549
scalar abilene_cost_network.node[8].core_layer 	data[8] 	42833
scalar abilene_cost_network.node[8].content_store 	p_hit[8] 	0.30408292579896
scalar abilene_cost_network.node[8].content_store 	hits[8] 	18716
scalar abilene_cost_network.node[8].content_store 	misses[8] 	42833
scalar abilene_cost_network.node[8].content_store 	decision_yes[8] 	42830
scalar abilene_cost_network.node[8].content_store 	decision_no[8] 	0
scalar abilene_cost_network.node[8].content_store 	decision_ratio[8] 	1
scalar abilene_cost_network.node[9].core_layer 	interests[9] 	191142
scalar abilene_cost_network.node[9].core_layer 	data[9] 	128252
scalar abilene_cost_network.node[9].content_store 	p_hit[9] 	0.32813301105984
scalar abilene_cost_network.node[9].content_store 	hits[9] 	62720
scalar abilene_cost_network.node[9].content_store 	misses[9] 	128422
scalar abilene_cost_network.node[9].content_store 	decision_yes[9] 	128247
scalar abilene_cost_network.node[9].content_store 	decision_no[9] 	0
scalar abilene_cost_network.node[9].content_store 	decision_ratio[9] 	1
scalar abilene_cost_network.node[10].core_layer 	interests[10] 	161659
scalar abilene_cost_network.node[10].core_layer 	data[10] 	156793
scalar abilene_cost_network.node[10].content_store 	p_hit[10] 	0.030100396513649
scalar abilene_cost_network.node[10].content_store 	hits[10] 	4866
scalar abilene_cost_network.node[10].content_store 	misses[10] 	156793
scalar abilene_cost_network.node[10].content_store 	decision_yes[10] 	156773
scalar abilene_cost_network.node[10].content_store 	decision_no[10] 	0
scalar abilene_cost_network.node[10].content_store 	decision_ratio[10] 	1
scalar abilene_cost_network.node[11].core_layer 	interests[11] 	107899
scalar abilene_cost_network.node[11].core_layer 	repo_load[11] 	107899
scalar abilene_cost_network.node[11].core_layer 	data[11] 	0
scalar abilene_cost_network.node[11].content_store 	p_hit[11] 	0
scalar abilene_cost_network.node[11].content_store 	hits[11] 	0
scalar abilene_cost_network.node[11].content_store 	misses[11] 	107899
scalar abilene_cost_network.node[11].content_store 	decision_yes[11] 	0
scalar abilene_cost_network.node[11].content_store 	decision_no[11] 	107899
scalar abilene_cost_network.node[11].content_store 	decision_ratio[11] 	0
scalar abilene_cost_network.node[12].core_layer 	interests[12] 	99816
scalar abilene_cost_network.node[12].core_layer 	repo_load[12] 	99816
scalar abilene_cost_network.node[12].core_layer 	data[12] 	0
scalar abilene_cost_network.node[12].content_store 	p_hit[12] 	0
scalar abilene_cost_network.node[12].content_store 	hits[12] 	0
scalar abilene_cost_network.node[12].content_store 	misses[12] 	99816
scalar abilene_cost_network.node[12].content_store 	decision_yes[12] 	0
scalar abilene_cost_network.node[12].content_store 	decision_no[12] 	99816
scalar abilene_cost_network.node[12].content_store 	decision_ratio[12] 	0
scalar abilene_cost_network.node[13].core_layer 	interests[13] 	112346
scalar abilene_cost_network.node[13].core_layer 	repo_load[13] 	112346
scalar abilene_cost_network.node[13].core_layer 	data[13] 	0
scalar abilene_cost_network.node[13].content_store 	p_hit[13] 	0
scalar abilene_cost_network.node[13].content_store 	hits[13] 	0
scalar abilene_cost_network.node[13].content_store 	misses[13] 	112346
scalar abilene_cost_network.node[13].content_store 	decision_yes[13] 	0
scalar abilene_cost_network.node[13].content_store 	decision_no[13] 	112346
scalar abilene_cost_network.node[13].content_store 	decision_ratio[13] 	0
scalar abilene_cost_network.client[0] 	hdistance[0] 	2.638911573696
scalar abilene_cost_network.client[0] 	downloads[0] 	180003
scalar abilene_cost_network.client[0] 	avg_time[0] 	0.010746209397
scalar abilene_cost_network.client[0] 	interests_sent[0] 	180176
scalar abilene_cost_network.client[5] 	hdistance[5] 	3.6561942103946
scalar abilene_cost_network.client[5] 	downloads[5] 	179805
scalar abilene_cost_network.client[5] 	avg_time[5] 	0.013267175751
scalar abilene_cost_network.client[5] 	interests_sent[5] 	180002
scalar abilene_cost_network.client[9] 	hdistance[9] 	2.3644014633794
scalar abilene_cost_network.client[9] 	downloads[9] 	180131
scalar abilene_cost_network.client[9] 	avg_time[9] 	0.009479485408
scalar abilene_cost_network.client[9] 	interests_sent[9] 	180301
