version 2
run General-2156-20140502-05:12:46-11096
attr D costprob0.001
attr F nrr
attr R lru
attr a 1.2
attr configname General
attr csize 1e3
attr ctlg 1e5
attr datetime 20140502-05:12:46
attr experiment General
attr inifile omnetpp.ini
attr iterationvars "$net=three_caches_scenario_3_links, $rep=4, $priceratiovalue=5, $weights=0_0.5_0.5, $a=1.2, $ctlg=1e5, $F=nrr, $ttl=1000, $D=costprob0.001, $xi=1, $R=lru, $csize=1e3"
attr iterationvars2 "$net=three_caches_scenario_3_links, $rep=4, $priceratiovalue=5, $weights=0_0.5_0.5, $a=1.2, $ctlg=1e5, $F=nrr, $ttl=1000, $D=costprob0.001, $xi=1, $R=lru, $csize=1e3, $repetition=0"
attr measurement "$net=three_caches_scenario_3_links, $rep=4, $priceratiovalue=5, $weights=0_0.5_0.5, $a=1.2, $ctlg=1e5, $F=nrr, $ttl=1000, $D=costprob0.001, $xi=1, $R=lru, $csize=1e3"
attr net three_caches_scenario_3_links
attr network networks.${net=three_caches_scenario_3_links}_network
attr priceratiovalue 5
attr processid 11096
attr rep 4
attr repetition 0
attr replication #0
attr resultdir results
attr runnumber 2156
attr seedset 4
attr ttl 1000
attr weights 0_0.5_0.5
attr xi 1

scalar . 	a 	1.2
scalar . 	csize 	1e3
scalar . 	ctlg 	1e5
scalar . 	priceratiovalue 	5
scalar . 	rep 	4
scalar . 	ttl 	1000
scalar . 	xi 	1
scalar three_caches_scenario_3_links_network.content_distribution 	repo-0 	4
scalar three_caches_scenario_3_links_network.content_distribution 	repo-1 	5
scalar three_caches_scenario_3_links_network.content_distribution 	repo-2 	6
scalar three_caches_scenario_3_links_network.content_distribution 	client-0 	0
scalar three_caches_scenario_3_links_network.content_distribution 	repo-0_card 	0
scalar three_caches_scenario_3_links_network.content_distribution 	repo-1_card 	50243
scalar three_caches_scenario_3_links_network.content_distribution 	repo-2_card 	49757
scalar three_caches_scenario_3_links_network.statistics 	p_hit 	0.46189484626713
scalar three_caches_scenario_3_links_network.statistics 	interests 	44525.285714286
scalar three_caches_scenario_3_links_network.statistics 	data 	18869.714285714
scalar three_caches_scenario_3_links_network.statistics 	hdistance 	0.93388236473281
scalar three_caches_scenario_3_links_network.statistics 	avg_time 	0
scalar three_caches_scenario_3_links_network.statistics 	downloads 	179589
scalar three_caches_scenario_3_links_network.statistics 	total_cost 	94795
scalar three_caches_scenario_3_links_network.statistics 	total_replicas 	100000
scalar three_caches_scenario_3_links_network.statistics 	interests_sent 	179589
scalar three_caches_scenario_3_links_network.node[0].core_layer 	interests[0] 	179589
scalar three_caches_scenario_3_links_network.node[0].core_layer 	data[0] 	96461
scalar three_caches_scenario_3_links_network.node[0].core_layer 	repo_int[0] 	35627
scalar three_caches_scenario_3_links_network.node[0].content_store 	p_hit[0] 	0.46287912956807
scalar three_caches_scenario_3_links_network.node[0].content_store 	hits[0] 	83128
scalar three_caches_scenario_3_links_network.node[0].content_store 	misses[0] 	96461
scalar three_caches_scenario_3_links_network.node[0].content_store 	decision_yes[0] 	39
scalar three_caches_scenario_3_links_network.node[0].content_store 	decision_no[0] 	96422
scalar three_caches_scenario_3_links_network.node[1].core_layer 	interests[1] 	0
scalar three_caches_scenario_3_links_network.node[1].core_layer 	data[1] 	0
scalar three_caches_scenario_3_links_network.node[1].content_store 	p_hit[1] 	-nan
scalar three_caches_scenario_3_links_network.node[1].content_store 	hits[1] 	0
scalar three_caches_scenario_3_links_network.node[1].content_store 	misses[1] 	0
scalar three_caches_scenario_3_links_network.node[1].content_store 	decision_yes[1] 	0
scalar three_caches_scenario_3_links_network.node[1].content_store 	decision_no[1] 	0
scalar three_caches_scenario_3_links_network.node[2].core_layer 	interests[2] 	59226
scalar three_caches_scenario_3_links_network.node[2].core_layer 	data[2] 	20835
scalar three_caches_scenario_3_links_network.node[2].content_store 	p_hit[2] 	0.64821193394793
scalar three_caches_scenario_3_links_network.node[2].content_store 	hits[2] 	38391
scalar three_caches_scenario_3_links_network.node[2].content_store 	misses[2] 	20835
scalar three_caches_scenario_3_links_network.node[2].content_store 	decision_yes[2] 	11
scalar three_caches_scenario_3_links_network.node[2].content_store 	decision_no[2] 	20824
scalar three_caches_scenario_3_links_network.node[3].core_layer 	interests[3] 	37235
scalar three_caches_scenario_3_links_network.node[3].core_layer 	data[3] 	14792
scalar three_caches_scenario_3_links_network.node[3].content_store 	p_hit[3] 	0.60273935813079
scalar three_caches_scenario_3_links_network.node[3].content_store 	hits[3] 	22443
scalar three_caches_scenario_3_links_network.node[3].content_store 	misses[3] 	14792
scalar three_caches_scenario_3_links_network.node[3].content_store 	decision_yes[3] 	29
scalar three_caches_scenario_3_links_network.node[3].content_store 	decision_no[3] 	14763
scalar three_caches_scenario_3_links_network.node[4].core_layer 	interests[4] 	0
scalar three_caches_scenario_3_links_network.node[4].core_layer 	data[4] 	0
scalar three_caches_scenario_3_links_network.node[4].content_store 	p_hit[4] 	-nan
scalar three_caches_scenario_3_links_network.node[4].content_store 	hits[4] 	0
scalar three_caches_scenario_3_links_network.node[4].content_store 	misses[4] 	0
scalar three_caches_scenario_3_links_network.node[4].content_store 	decision_yes[4] 	0
scalar three_caches_scenario_3_links_network.node[4].content_store 	decision_no[4] 	0
scalar three_caches_scenario_3_links_network.node[5].core_layer 	interests[5] 	20835
scalar three_caches_scenario_3_links_network.node[5].core_layer 	repo_load[5] 	20835
scalar three_caches_scenario_3_links_network.node[5].core_layer 	data[5] 	0
scalar three_caches_scenario_3_links_network.node[5].content_store 	p_hit[5] 	0
scalar three_caches_scenario_3_links_network.node[5].content_store 	hits[5] 	0
scalar three_caches_scenario_3_links_network.node[5].content_store 	misses[5] 	20835
scalar three_caches_scenario_3_links_network.node[5].content_store 	decision_yes[5] 	0
scalar three_caches_scenario_3_links_network.node[5].content_store 	decision_no[5] 	20835
scalar three_caches_scenario_3_links_network.node[6].core_layer 	interests[6] 	14792
scalar three_caches_scenario_3_links_network.node[6].core_layer 	repo_load[6] 	14792
scalar three_caches_scenario_3_links_network.node[6].core_layer 	data[6] 	0
scalar three_caches_scenario_3_links_network.node[6].content_store 	p_hit[6] 	0
scalar three_caches_scenario_3_links_network.node[6].content_store 	hits[6] 	0
scalar three_caches_scenario_3_links_network.node[6].content_store 	misses[6] 	14792
scalar three_caches_scenario_3_links_network.node[6].content_store 	decision_yes[6] 	0
scalar three_caches_scenario_3_links_network.node[6].content_store 	decision_no[6] 	14792
scalar three_caches_scenario_3_links_network.client[0] 	hdistance[0] 	0.93388236473281
scalar three_caches_scenario_3_links_network.client[0] 	downloads[0] 	179589
scalar three_caches_scenario_3_links_network.client[0] 	avg_time[0] 	0
scalar three_caches_scenario_3_links_network.client[0] 	interests_sent[0] 	179589
