version 2
run General-215-20140423-18:37:11-25982
attr D costprob0.01
attr F nrr
attr R lru
attr a 1.2
attr configname General
attr csize 2
attr ctlg 10^3
attr datetime 20140423-18:37:11
attr experiment General
attr inifile omnetpp.ini
attr iterationvars "$net=simple_scenario, $rep=1, $priceratiovalue=6, $a=1.2, $ctlg=10^3, $F=nrr, $ttl=1000, $D=costprob0.01, $R=lru, $csize=2"
attr iterationvars2 "$net=simple_scenario, $rep=1, $priceratiovalue=6, $a=1.2, $ctlg=10^3, $F=nrr, $ttl=1000, $D=costprob0.01, $R=lru, $csize=2, $repetition=0"
attr measurement "$net=simple_scenario, $rep=1, $priceratiovalue=6, $a=1.2, $ctlg=10^3, $F=nrr, $ttl=1000, $D=costprob0.01, $R=lru, $csize=2"
attr net simple_scenario
attr network networks.${net=simple_scenario}_network
attr priceratiovalue 6
attr processid 25982
attr rep 1
attr repetition 0
attr replication #0
attr resultdir results
attr runnumber 215
attr seedset 1
attr ttl 1000

scalar . 	a 	1.2
scalar . 	csize 	2
scalar . 	priceratiovalue 	6
scalar . 	rep 	1
scalar . 	ttl 	1000
scalar simple_scenario_network.content_distribution 	repo-0 	3
scalar simple_scenario_network.content_distribution 	repo-1 	4
scalar simple_scenario_network.content_distribution 	client-0 	0
scalar simple_scenario_network.content_distribution 	repo-0_card 	522
scalar simple_scenario_network.content_distribution 	repo-1_card 	478
scalar simple_scenario_network.statistics 	p_hit 	0.15343674341271
scalar simple_scenario_network.statistics 	interests 	89133.8
scalar simple_scenario_network.statistics 	data 	52981.8
scalar simple_scenario_network.statistics 	hdistance 	2.0872261562293
scalar simple_scenario_network.statistics 	avg_time 	0.001985566519
scalar simple_scenario_network.statistics 	downloads 	180760
scalar simple_scenario_network.statistics 	total_cost 	59475
scalar simple_scenario_network.node[0].core_layer 	interests[0] 	180760
scalar simple_scenario_network.node[0].core_layer 	data[0] 	152531
scalar simple_scenario_network.node[0].core_layer 	repo_int[0] 	112378
scalar simple_scenario_network.node[0].content_store 	p_hit[0] 	0.15616840008852
scalar simple_scenario_network.node[0].content_store 	hits[0] 	28229
scalar simple_scenario_network.node[0].content_store 	misses[0] 	152531
scalar simple_scenario_network.node[1].core_layer 	interests[1] 	61400
scalar simple_scenario_network.node[1].core_layer 	data[1] 	51587
scalar simple_scenario_network.node[1].content_store 	p_hit[1] 	0.15982084690554
scalar simple_scenario_network.node[1].content_store 	hits[1] 	9813
scalar simple_scenario_network.node[1].content_store 	misses[1] 	51587
scalar simple_scenario_network.node[2].core_layer 	interests[2] 	91131
scalar simple_scenario_network.node[2].core_layer 	data[2] 	60791
scalar simple_scenario_network.node[2].content_store 	p_hit[2] 	0.33292732440114
scalar simple_scenario_network.node[2].content_store 	hits[2] 	30340
scalar simple_scenario_network.node[2].content_store 	misses[2] 	60791
scalar simple_scenario_network.node[3].core_layer 	interests[3] 	51587
scalar simple_scenario_network.node[3].core_layer 	repo_load[3] 	51587
scalar simple_scenario_network.node[3].core_layer 	data[3] 	0
scalar simple_scenario_network.node[3].content_store 	p_hit[3] 	0
scalar simple_scenario_network.node[3].content_store 	hits[3] 	0
scalar simple_scenario_network.node[3].content_store 	misses[3] 	51587
scalar simple_scenario_network.node[4].core_layer 	interests[4] 	60791
scalar simple_scenario_network.node[4].core_layer 	repo_load[4] 	60791
scalar simple_scenario_network.node[4].core_layer 	data[4] 	0
scalar simple_scenario_network.node[4].content_store 	p_hit[4] 	0
scalar simple_scenario_network.node[4].content_store 	hits[4] 	0
scalar simple_scenario_network.node[4].content_store 	misses[4] 	60791
scalar simple_scenario_network.client[0] 	hdistance[0] 	2.0872261562293
scalar simple_scenario_network.client[0] 	downloads[0] 	180760
scalar simple_scenario_network.client[0] 	avg_time[0] 	0.001985566519
