version 2
run General-2-20140627-18:01:22-15154
attr D fix0.01
attr F nrr
attr R lru
attr a 1
attr configname General
attr csize 1e3
attr ctlg 1e5
attr datetime 20140627-18:01:22
attr experiment General
attr inifile omnetpp.ini
attr iterationvars "$net=geant_cost, $rep=18, $priceratiovalue=10, $weights=0.333_0.333_0.334, $lambda=100, $a=1, $ctlg=1e5, $F=nrr, $ttl=1000, $D=fix0.01, $xi=1, $R=lru, $csize=1e3, $pricebits=0, $window=60, $variance=0.05, $mytime=1800"
attr iterationvars2 "$net=geant_cost, $rep=18, $priceratiovalue=10, $weights=0.333_0.333_0.334, $lambda=100, $a=1, $ctlg=1e5, $F=nrr, $ttl=1000, $D=fix0.01, $xi=1, $R=lru, $csize=1e3, $pricebits=0, $window=60, $variance=0.05, $mytime=1800, $repetition=0"
attr lambda 100
attr measurement "$net=geant_cost, $rep=18, $priceratiovalue=10, $weights=0.333_0.333_0.334, $lambda=100, $a=1, $ctlg=1e5, $F=nrr, $ttl=1000, $D=fix0.01, $xi=1, $R=lru, $csize=1e3, $pricebits=0, $window=60, $variance=0.05, $mytime=1800"
attr mytime 1800
attr net geant_cost
attr network "networks.${net=geant_cost, abilene_cost}_network"
attr pricebits 0
attr priceratiovalue 10
attr processid 15154
attr rep 18
attr repetition 0
attr replication #0
attr resultdir results
attr runnumber 2
attr seedset 18
attr ttl 1000
attr variance 0.05
attr weights 0.333_0.333_0.334
attr window 60
attr xi 1

scalar . 	a 	1
scalar . 	csize 	1e3
scalar . 	ctlg 	1e5
scalar . 	lambda 	100
scalar . 	mytime 	1800
scalar . 	pricebits 	0
scalar . 	priceratiovalue 	10
scalar . 	rep 	18
scalar . 	ttl 	1000
scalar . 	variance 	0.05
scalar . 	window 	60
scalar . 	xi 	1
scalar geant_cost_network.content_distribution 	repo-0 	22
scalar geant_cost_network.content_distribution 	repo-1 	23
scalar geant_cost_network.content_distribution 	repo-2 	24
scalar geant_cost_network.content_distribution 	client-0 	20
scalar geant_cost_network.content_distribution 	client-1 	10
scalar geant_cost_network.content_distribution 	client-2 	12
scalar geant_cost_network.content_distribution 	client-3 	9
scalar geant_cost_network.content_distribution 	client-4 	5
scalar geant_cost_network.content_distribution 	repo-0_card 	33459
scalar geant_cost_network.content_distribution 	repo-1_card 	33216
scalar geant_cost_network.content_distribution 	repo-2_card 	33325
scalar geant_cost_network.statistics 	repo_popularity[0] 	0.37544107217466
scalar geant_cost_network.statistics 	repo_popularity[1] 	0.27083019094872
scalar geant_cost_network.statistics 	repo_popularity[2] 	0.35372873687662
scalar geant_cost_network.statistics 	stabilization_time 	36060
scalar geant_cost_network.node[7].face$o[4].channel 	price[7] 	0
scalar geant_cost_network.node[7].face$o[4].channel 	represented_price[7] 	0
scalar geant_cost_network.node[8].face$o[3].channel 	price[8] 	0
scalar geant_cost_network.node[8].face$o[3].channel 	represented_price[8] 	0
scalar geant_cost_network.node[21].face$o[5].channel 	price[21] 	0
scalar geant_cost_network.node[21].face$o[5].channel 	represented_price[21] 	0
scalar geant_cost_network.node[22].face$o[1].channel 	price[22] 	0
scalar geant_cost_network.node[22].face$o[1].channel 	represented_price[22] 	0
scalar geant_cost_network.node[23].face$o[1].channel 	price[23] 	1
scalar geant_cost_network.node[23].face$o[1].channel 	represented_price[23] 	1
scalar geant_cost_network.node[24].face$o[1].channel 	price[24] 	10
scalar geant_cost_network.node[24].face$o[1].channel 	represented_price[24] 	10
scalar geant_cost_network.statistics 	p_hit 	0.15923085539073
scalar geant_cost_network.statistics 	interests 	114277.6
scalar geant_cost_network.statistics 	data 	78253.92
scalar geant_cost_network.statistics 	hdistance 	2.6675245582449
scalar geant_cost_network.statistics 	avg_time 	0.005968354932
scalar geant_cost_network.statistics 	downloads 	900319
scalar geant_cost_network.statistics 	total_cost 	1615695
scalar geant_cost_network.statistics 	total_replicas 	100000
scalar geant_cost_network.statistics 	inner_hit 	0.50562522839127
scalar geant_cost_network.statistics 	interests_sent 	900596
scalar geant_cost_network.node[0].core_layer 	interests[0] 	0
scalar geant_cost_network.node[0].core_layer 	data[0] 	0
scalar geant_cost_network.node[0].core_layer 	repo_int[0] 	445095
scalar geant_cost_network.node[0].content_store 	p_hit[0] 	-nan
scalar geant_cost_network.node[0].content_store 	hits[0] 	0
scalar geant_cost_network.node[0].content_store 	misses[0] 	0
scalar geant_cost_network.node[0].content_store 	decision_yes[0] 	0
scalar geant_cost_network.node[0].content_store 	decision_no[0] 	0
scalar geant_cost_network.node[0].content_store 	decision_ratio[0] 	0
scalar geant_cost_network.node[1].core_layer 	interests[1] 	0
scalar geant_cost_network.node[1].core_layer 	data[1] 	0
scalar geant_cost_network.node[1].content_store 	p_hit[1] 	-nan
scalar geant_cost_network.node[1].content_store 	hits[1] 	0
scalar geant_cost_network.node[1].content_store 	misses[1] 	0
scalar geant_cost_network.node[1].content_store 	decision_yes[1] 	0
scalar geant_cost_network.node[1].content_store 	decision_no[1] 	0
scalar geant_cost_network.node[1].content_store 	decision_ratio[1] 	0
scalar geant_cost_network.node[2].core_layer 	interests[2] 	0
scalar geant_cost_network.node[2].core_layer 	data[2] 	0
scalar geant_cost_network.node[2].content_store 	p_hit[2] 	-nan
scalar geant_cost_network.node[2].content_store 	hits[2] 	0
scalar geant_cost_network.node[2].content_store 	misses[2] 	0
scalar geant_cost_network.node[2].content_store 	decision_yes[2] 	0
scalar geant_cost_network.node[2].content_store 	decision_no[2] 	0
scalar geant_cost_network.node[2].content_store 	decision_ratio[2] 	0
scalar geant_cost_network.node[3].core_layer 	interests[3] 	162822
scalar geant_cost_network.node[3].core_layer 	data[3] 	141178
scalar geant_cost_network.node[3].content_store 	p_hit[3] 	0.13293043937551
scalar geant_cost_network.node[3].content_store 	hits[3] 	21644
scalar geant_cost_network.node[3].content_store 	misses[3] 	141178
scalar geant_cost_network.node[3].content_store 	decision_yes[3] 	1446
scalar geant_cost_network.node[3].content_store 	decision_no[3] 	139732
scalar geant_cost_network.node[3].content_store 	decision_ratio[3] 	0.010242389040785
scalar geant_cost_network.node[4].core_layer 	interests[4] 	201904
scalar geant_cost_network.node[4].core_layer 	data[4] 	192717
scalar geant_cost_network.node[4].content_store 	p_hit[4] 	0.045501822648387
scalar geant_cost_network.node[4].content_store 	hits[4] 	9187
scalar geant_cost_network.node[4].content_store 	misses[4] 	192717
scalar geant_cost_network.node[4].content_store 	decision_yes[4] 	1872
scalar geant_cost_network.node[4].content_store 	decision_no[4] 	190845
scalar geant_cost_network.node[4].content_store 	decision_ratio[4] 	0.0097137253070565
scalar geant_cost_network.node[5].core_layer 	interests[5] 	187609
scalar geant_cost_network.node[5].core_layer 	data[5] 	123616
scalar geant_cost_network.node[5].content_store 	p_hit[5] 	0.34083652703229
scalar geant_cost_network.node[5].content_store 	hits[5] 	63944
scalar geant_cost_network.node[5].content_store 	misses[5] 	123665
scalar geant_cost_network.node[5].content_store 	decision_yes[5] 	1235
scalar geant_cost_network.node[5].content_store 	decision_no[5] 	122381
scalar geant_cost_network.node[5].content_store 	decision_ratio[5] 	0.0099906161014755
scalar geant_cost_network.node[6].core_layer 	interests[6] 	70123
scalar geant_cost_network.node[6].core_layer 	data[6] 	62048
scalar geant_cost_network.node[6].content_store 	p_hit[6] 	0.11515479942387
scalar geant_cost_network.node[6].content_store 	hits[6] 	8075
scalar geant_cost_network.node[6].content_store 	misses[6] 	62048
scalar geant_cost_network.node[6].content_store 	decision_yes[6] 	640
scalar geant_cost_network.node[6].content_store 	decision_no[6] 	61408
scalar geant_cost_network.node[6].content_store 	decision_ratio[6] 	0.01031459515214
scalar geant_cost_network.node[7].core_layer 	interests[7] 	221871
scalar geant_cost_network.node[7].core_layer 	data[7] 	214241
scalar geant_cost_network.node[7].content_store 	p_hit[7] 	0.034380338124406
scalar geant_cost_network.node[7].content_store 	hits[7] 	7628
scalar geant_cost_network.node[7].content_store 	misses[7] 	214243
scalar geant_cost_network.node[7].content_store 	decision_yes[7] 	2143
scalar geant_cost_network.node[7].content_store 	decision_no[7] 	212098
scalar geant_cost_network.node[7].content_store 	decision_ratio[7] 	0.010002753907982
scalar geant_cost_network.node[8].core_layer 	interests[8] 	225506
scalar geant_cost_network.node[8].core_layer 	data[8] 	216177
scalar geant_cost_network.node[8].content_store 	p_hit[8] 	0.041369187516075
scalar geant_cost_network.node[8].content_store 	hits[8] 	9329
scalar geant_cost_network.node[8].content_store 	misses[8] 	216177
scalar geant_cost_network.node[8].content_store 	decision_yes[8] 	2191
scalar geant_cost_network.node[8].content_store 	decision_no[8] 	213986
scalar geant_cost_network.node[8].content_store 	decision_ratio[8] 	0.010135213274308
scalar geant_cost_network.node[9].core_layer 	interests[9] 	343673
scalar geant_cost_network.node[9].core_layer 	data[9] 	272358
scalar geant_cost_network.node[9].content_store 	p_hit[9] 	0.20704274121039
scalar geant_cost_network.node[9].content_store 	hits[9] 	71155
scalar geant_cost_network.node[9].content_store 	misses[9] 	272518
scalar geant_cost_network.node[9].content_store 	decision_yes[9] 	2779
scalar geant_cost_network.node[9].content_store 	decision_no[9] 	269578
scalar geant_cost_network.node[9].content_store 	decision_ratio[9] 	0.010203519645172
scalar geant_cost_network.node[10].core_layer 	interests[10] 	190035
scalar geant_cost_network.node[10].core_layer 	data[10] 	120804
scalar geant_cost_network.node[10].content_store 	p_hit[10] 	0.36390138658668
scalar geant_cost_network.node[10].content_store 	hits[10] 	69154
scalar geant_cost_network.node[10].content_store 	misses[10] 	120881
scalar geant_cost_network.node[10].content_store 	decision_yes[10] 	1238
scalar geant_cost_network.node[10].content_store 	decision_no[10] 	119566
scalar geant_cost_network.node[10].content_store 	decision_ratio[10] 	0.010248005032946
scalar geant_cost_network.node[11].core_layer 	interests[11] 	0
scalar geant_cost_network.node[11].core_layer 	data[11] 	0
scalar geant_cost_network.node[11].content_store 	p_hit[11] 	-nan
scalar geant_cost_network.node[11].content_store 	hits[11] 	0
scalar geant_cost_network.node[11].content_store 	misses[11] 	0
scalar geant_cost_network.node[11].content_store 	decision_yes[11] 	0
scalar geant_cost_network.node[11].content_store 	decision_no[11] 	0
scalar geant_cost_network.node[11].content_store 	decision_ratio[11] 	0
scalar geant_cost_network.node[12].core_layer 	interests[12] 	283607
scalar geant_cost_network.node[12].core_layer 	data[12] 	213750
scalar geant_cost_network.node[12].content_store 	p_hit[12] 	0.24542059963259
scalar geant_cost_network.node[12].content_store 	hits[12] 	69603
scalar geant_cost_network.node[12].content_store 	misses[12] 	214004
scalar geant_cost_network.node[12].content_store 	decision_yes[12] 	2098
scalar geant_cost_network.node[12].content_store 	decision_no[12] 	211652
scalar geant_cost_network.node[12].content_store 	decision_ratio[12] 	0.0098152046783626
scalar geant_cost_network.node[13].core_layer 	interests[13] 	29888
scalar geant_cost_network.node[13].core_layer 	data[13] 	6321
scalar geant_cost_network.node[13].content_store 	p_hit[13] 	0.78851043897216
scalar geant_cost_network.node[13].content_store 	hits[13] 	23567
scalar geant_cost_network.node[13].content_store 	misses[13] 	6321
scalar geant_cost_network.node[13].content_store 	decision_yes[13] 	56
scalar geant_cost_network.node[13].content_store 	decision_no[13] 	6265
scalar geant_cost_network.node[13].content_store 	decision_ratio[13] 	0.008859357696567
scalar geant_cost_network.node[14].core_layer 	interests[14] 	64010
scalar geant_cost_network.node[14].core_layer 	data[14] 	44114
scalar geant_cost_network.node[14].content_store 	p_hit[14] 	0.31052960474926
scalar geant_cost_network.node[14].content_store 	hits[14] 	19877
scalar geant_cost_network.node[14].content_store 	misses[14] 	44133
scalar geant_cost_network.node[14].content_store 	decision_yes[14] 	471
scalar geant_cost_network.node[14].content_store 	decision_no[14] 	43643
scalar geant_cost_network.node[14].content_store 	decision_ratio[14] 	0.010676882622297
scalar geant_cost_network.node[15].core_layer 	interests[15] 	0
scalar geant_cost_network.node[15].core_layer 	data[15] 	0
scalar geant_cost_network.node[15].content_store 	p_hit[15] 	-nan
scalar geant_cost_network.node[15].content_store 	hits[15] 	0
scalar geant_cost_network.node[15].content_store 	misses[15] 	0
scalar geant_cost_network.node[15].content_store 	decision_yes[15] 	0
scalar geant_cost_network.node[15].content_store 	decision_no[15] 	0
scalar geant_cost_network.node[15].content_store 	decision_ratio[15] 	0
scalar geant_cost_network.node[16].core_layer 	interests[16] 	0
scalar geant_cost_network.node[16].core_layer 	data[16] 	0
scalar geant_cost_network.node[16].content_store 	p_hit[16] 	-nan
scalar geant_cost_network.node[16].content_store 	hits[16] 	0
scalar geant_cost_network.node[16].content_store 	misses[16] 	0
scalar geant_cost_network.node[16].content_store 	decision_yes[16] 	0
scalar geant_cost_network.node[16].content_store 	decision_no[16] 	0
scalar geant_cost_network.node[16].content_store 	decision_ratio[16] 	0
scalar geant_cost_network.node[17].core_layer 	interests[17] 	0
scalar geant_cost_network.node[17].core_layer 	data[17] 	0
scalar geant_cost_network.node[17].content_store 	p_hit[17] 	-nan
scalar geant_cost_network.node[17].content_store 	hits[17] 	0
scalar geant_cost_network.node[17].content_store 	misses[17] 	0
scalar geant_cost_network.node[17].content_store 	decision_yes[17] 	0
scalar geant_cost_network.node[17].content_store 	decision_no[17] 	0
scalar geant_cost_network.node[17].content_store 	decision_ratio[17] 	0
scalar geant_cost_network.node[18].core_layer 	interests[18] 	95960
scalar geant_cost_network.node[18].core_layer 	data[18] 	82212
scalar geant_cost_network.node[18].content_store 	p_hit[18] 	0.14328887036265
scalar geant_cost_network.node[18].content_store 	hits[18] 	13750
scalar geant_cost_network.node[18].content_store 	misses[18] 	82210
scalar geant_cost_network.node[18].content_store 	decision_yes[18] 	798
scalar geant_cost_network.node[18].content_store 	decision_no[18] 	81414
scalar geant_cost_network.node[18].content_store 	decision_ratio[18] 	0.0097066121734053
scalar geant_cost_network.node[19].core_layer 	interests[19] 	0
scalar geant_cost_network.node[19].core_layer 	data[19] 	0
scalar geant_cost_network.node[19].content_store 	p_hit[19] 	-nan
scalar geant_cost_network.node[19].content_store 	hits[19] 	0
scalar geant_cost_network.node[19].content_store 	misses[19] 	0
scalar geant_cost_network.node[19].content_store 	decision_yes[19] 	0
scalar geant_cost_network.node[19].content_store 	decision_no[19] 	0
scalar geant_cost_network.node[19].content_store 	decision_ratio[19] 	0
scalar geant_cost_network.node[20].core_layer 	interests[20] 	181608
scalar geant_cost_network.node[20].core_layer 	data[20] 	120249
scalar geant_cost_network.node[20].content_store 	p_hit[20] 	0.3377274128893
scalar geant_cost_network.node[20].content_store 	hits[20] 	61334
scalar geant_cost_network.node[20].content_store 	misses[20] 	120274
scalar geant_cost_network.node[20].content_store 	decision_yes[20] 	1177
scalar geant_cost_network.node[20].content_store 	decision_no[20] 	119072
scalar geant_cost_network.node[20].content_store 	decision_ratio[20] 	0.009788023185224
scalar geant_cost_network.node[21].core_layer 	interests[21] 	153229
scalar geant_cost_network.node[21].core_layer 	data[21] 	146563
scalar geant_cost_network.node[21].content_store 	p_hit[21] 	0.043503514347806
scalar geant_cost_network.node[21].content_store 	hits[21] 	6666
scalar geant_cost_network.node[21].content_store 	misses[21] 	146563
scalar geant_cost_network.node[21].content_store 	decision_yes[21] 	1437
scalar geant_cost_network.node[21].content_store 	decision_no[21] 	145126
scalar geant_cost_network.node[21].content_store 	decision_ratio[21] 	0.009804657382832
scalar geant_cost_network.node[22].core_layer 	interests[22] 	148467
scalar geant_cost_network.node[22].core_layer 	repo_load[22] 	148467
scalar geant_cost_network.node[22].core_layer 	data[22] 	0
scalar geant_cost_network.node[22].content_store 	p_hit[22] 	0
scalar geant_cost_network.node[22].content_store 	hits[22] 	0
scalar geant_cost_network.node[22].content_store 	misses[22] 	148467
scalar geant_cost_network.node[22].content_store 	decision_yes[22] 	0
scalar geant_cost_network.node[22].content_store 	decision_no[22] 	148467
scalar geant_cost_network.node[22].content_store 	decision_ratio[22] 	0
scalar geant_cost_network.node[23].core_layer 	interests[23] 	150065
scalar geant_cost_network.node[23].core_layer 	repo_load[23] 	150065
scalar geant_cost_network.node[23].core_layer 	data[23] 	0
scalar geant_cost_network.node[23].content_store 	p_hit[23] 	0
scalar geant_cost_network.node[23].content_store 	hits[23] 	0
scalar geant_cost_network.node[23].content_store 	misses[23] 	150065
scalar geant_cost_network.node[23].content_store 	decision_yes[23] 	0
scalar geant_cost_network.node[23].content_store 	decision_no[23] 	150065
scalar geant_cost_network.node[23].content_store 	decision_ratio[23] 	0
scalar geant_cost_network.node[24].core_layer 	interests[24] 	146563
scalar geant_cost_network.node[24].core_layer 	repo_load[24] 	146563
scalar geant_cost_network.node[24].core_layer 	data[24] 	0
scalar geant_cost_network.node[24].content_store 	p_hit[24] 	0
scalar geant_cost_network.node[24].content_store 	hits[24] 	0
scalar geant_cost_network.node[24].content_store 	misses[24] 	146563
scalar geant_cost_network.node[24].content_store 	decision_yes[24] 	0
scalar geant_cost_network.node[24].content_store 	decision_no[24] 	146563
scalar geant_cost_network.node[24].content_store 	decision_ratio[24] 	0
scalar geant_cost_network.client[5] 	hdistance[5] 	2.420932707146
scalar geant_cost_network.client[5] 	downloads[5] 	179499
scalar geant_cost_network.client[5] 	avg_time[5] 	0.007567884041
scalar geant_cost_network.client[5] 	interests_sent[5] 	179547
scalar geant_cost_network.client[9] 	hdistance[9] 	2.4994167120335
scalar geant_cost_network.client[9] 	downloads[9] 	180014
scalar geant_cost_network.client[9] 	avg_time[9] 	0.004877781637
scalar geant_cost_network.client[9] 	interests_sent[9] 	180070
scalar geant_cost_network.client[10] 	hdistance[10] 	3.1088551791361
scalar geant_cost_network.client[10] 	downloads[10] 	180561
scalar geant_cost_network.client[10] 	avg_time[10] 	0.006158540481
scalar geant_cost_network.client[10] 	interests_sent[10] 	180638
scalar geant_cost_network.client[12] 	hdistance[12] 	2.6082391671857
scalar geant_cost_network.client[12] 	downloads[12] 	179824
scalar geant_cost_network.client[12] 	avg_time[12] 	0.005880911028
scalar geant_cost_network.client[12] 	interests_sent[12] 	179895
scalar geant_cost_network.client[20] 	hdistance[20] 	2.7001790257232
scalar geant_cost_network.client[20] 	downloads[20] 	180421
scalar geant_cost_network.client[20] 	avg_time[20] 	0.005356657474
scalar geant_cost_network.client[20] 	interests_sent[20] 	180446
