version 2
run General-2-20140626-16:20:36-10610
attr D fix0.01
attr F nrr
attr R lru
attr a 1
attr configname General
attr csize 1e3
attr ctlg 1e5
attr datetime 20140626-16:20:36
attr experiment General
attr inifile omnetpp.ini
attr iterationvars "$net=geant_cost, $rep=4, $priceratiovalue=10, $weights=0.333_0.333_0.334, $lambda=100, $a=1, $ctlg=1e5, $F=nrr, $ttl=1000, $D=fix0.01, $xi=1, $R=lru, $csize=1e3, $pricebits=0, $mytime=1800"
attr iterationvars2 "$net=geant_cost, $rep=4, $priceratiovalue=10, $weights=0.333_0.333_0.334, $lambda=100, $a=1, $ctlg=1e5, $F=nrr, $ttl=1000, $D=fix0.01, $xi=1, $R=lru, $csize=1e3, $pricebits=0, $mytime=1800, $repetition=0"
attr lambda 100
attr measurement "$net=geant_cost, $rep=4, $priceratiovalue=10, $weights=0.333_0.333_0.334, $lambda=100, $a=1, $ctlg=1e5, $F=nrr, $ttl=1000, $D=fix0.01, $xi=1, $R=lru, $csize=1e3, $pricebits=0, $mytime=1800"
attr mytime 1800
attr net geant_cost
attr network "networks.${net=geant_cost, abilene_cost}_network"
attr pricebits 0
attr priceratiovalue 10
attr processid 10610
attr rep 4
attr repetition 0
attr replication #0
attr resultdir results
attr runnumber 2
attr seedset 4
attr ttl 1000
attr weights 0.333_0.333_0.334
attr xi 1

scalar . 	a 	1
scalar . 	csize 	1e3
scalar . 	ctlg 	1e5
scalar . 	lambda 	100
scalar . 	mytime 	1800
scalar . 	pricebits 	0
scalar . 	priceratiovalue 	10
scalar . 	rep 	4
scalar . 	ttl 	1000
scalar . 	xi 	1
scalar geant_cost_network.content_distribution 	repo-0 	22
scalar geant_cost_network.content_distribution 	repo-1 	23
scalar geant_cost_network.content_distribution 	repo-2 	24
scalar geant_cost_network.content_distribution 	client-0 	20
scalar geant_cost_network.content_distribution 	client-1 	10
scalar geant_cost_network.content_distribution 	client-2 	12
scalar geant_cost_network.content_distribution 	client-3 	9
scalar geant_cost_network.content_distribution 	client-4 	5
scalar geant_cost_network.content_distribution 	repo-0_card 	33272
scalar geant_cost_network.content_distribution 	repo-1_card 	33152
scalar geant_cost_network.content_distribution 	repo-2_card 	33576
scalar geant_cost_network.statistics 	repo_popularity[0] 	0.28234107170654
scalar geant_cost_network.statistics 	repo_popularity[1] 	0.30413978820018
scalar geant_cost_network.statistics 	repo_popularity[2] 	0.41351914009327
scalar geant_cost_network.statistics 	stabilization_time 	36060
scalar geant_cost_network.node[7].face$o[4].channel 	price[7] 	0
scalar geant_cost_network.node[7].face$o[4].channel 	represented_price[7] 	0
scalar geant_cost_network.node[8].face$o[3].channel 	price[8] 	0
scalar geant_cost_network.node[8].face$o[3].channel 	represented_price[8] 	0
scalar geant_cost_network.node[21].face$o[5].channel 	price[21] 	0
scalar geant_cost_network.node[21].face$o[5].channel 	represented_price[21] 	0
scalar geant_cost_network.node[22].face$o[1].channel 	price[22] 	0
scalar geant_cost_network.node[22].face$o[1].channel 	represented_price[22] 	0
scalar geant_cost_network.node[23].face$o[1].channel 	price[23] 	1
scalar geant_cost_network.node[23].face$o[1].channel 	represented_price[23] 	1
scalar geant_cost_network.node[24].face$o[1].channel 	price[24] 	10
scalar geant_cost_network.node[24].face$o[1].channel 	represented_price[24] 	10
scalar geant_cost_network.statistics 	p_hit 	0.15933797077669
scalar geant_cost_network.statistics 	interests 	114281.36
scalar geant_cost_network.statistics 	data 	78297.44
scalar geant_cost_network.statistics 	hdistance 	2.6709526208734
scalar geant_cost_network.statistics 	avg_time 	0.005960048512
scalar geant_cost_network.statistics 	downloads 	899345
scalar geant_cost_network.statistics 	total_cost 	1631592
scalar geant_cost_network.statistics 	total_replicas 	100000
scalar geant_cost_network.statistics 	inner_hit 	0.50654198333231
scalar geant_cost_network.statistics 	interests_sent 	899598
scalar geant_cost_network.node[0].core_layer 	interests[0] 	0
scalar geant_cost_network.node[0].core_layer 	data[0] 	0
scalar geant_cost_network.node[0].core_layer 	repo_int[0] 	443789
scalar geant_cost_network.node[0].content_store 	p_hit[0] 	-nan
scalar geant_cost_network.node[0].content_store 	hits[0] 	0
scalar geant_cost_network.node[0].content_store 	misses[0] 	0
scalar geant_cost_network.node[0].content_store 	decision_yes[0] 	0
scalar geant_cost_network.node[0].content_store 	decision_no[0] 	0
scalar geant_cost_network.node[0].content_store 	decision_ratio[0] 	0
scalar geant_cost_network.node[1].core_layer 	interests[1] 	0
scalar geant_cost_network.node[1].core_layer 	data[1] 	0
scalar geant_cost_network.node[1].content_store 	p_hit[1] 	-nan
scalar geant_cost_network.node[1].content_store 	hits[1] 	0
scalar geant_cost_network.node[1].content_store 	misses[1] 	0
scalar geant_cost_network.node[1].content_store 	decision_yes[1] 	0
scalar geant_cost_network.node[1].content_store 	decision_no[1] 	0
scalar geant_cost_network.node[1].content_store 	decision_ratio[1] 	0
scalar geant_cost_network.node[2].core_layer 	interests[2] 	0
scalar geant_cost_network.node[2].core_layer 	data[2] 	0
scalar geant_cost_network.node[2].content_store 	p_hit[2] 	-nan
scalar geant_cost_network.node[2].content_store 	hits[2] 	0
scalar geant_cost_network.node[2].content_store 	misses[2] 	0
scalar geant_cost_network.node[2].content_store 	decision_yes[2] 	0
scalar geant_cost_network.node[2].content_store 	decision_no[2] 	0
scalar geant_cost_network.node[2].content_store 	decision_ratio[2] 	0
scalar geant_cost_network.node[3].core_layer 	interests[3] 	164911
scalar geant_cost_network.node[3].core_layer 	data[3] 	143359
scalar geant_cost_network.node[3].content_store 	p_hit[3] 	0.13068261062027
scalar geant_cost_network.node[3].content_store 	hits[3] 	21551
scalar geant_cost_network.node[3].content_store 	misses[3] 	143360
scalar geant_cost_network.node[3].content_store 	decision_yes[3] 	1459
scalar geant_cost_network.node[3].content_store 	decision_no[3] 	141900
scalar geant_cost_network.node[3].content_store 	decision_ratio[3] 	0.010177247330129
scalar geant_cost_network.node[4].core_layer 	interests[4] 	203516
scalar geant_cost_network.node[4].core_layer 	data[4] 	194160
scalar geant_cost_network.node[4].content_store 	p_hit[4] 	0.045961988246624
scalar geant_cost_network.node[4].content_store 	hits[4] 	9354
scalar geant_cost_network.node[4].content_store 	misses[4] 	194162
scalar geant_cost_network.node[4].content_store 	decision_yes[4] 	2019
scalar geant_cost_network.node[4].content_store 	decision_no[4] 	192141
scalar geant_cost_network.node[4].content_store 	decision_ratio[4] 	0.010398640296663
scalar geant_cost_network.node[5].core_layer 	interests[5] 	188610
scalar geant_cost_network.node[5].core_layer 	data[5] 	124567
scalar geant_cost_network.node[5].content_store 	p_hit[5] 	0.33927681459095
scalar geant_cost_network.node[5].content_store 	hits[5] 	63991
scalar geant_cost_network.node[5].content_store 	misses[5] 	124619
scalar geant_cost_network.node[5].content_store 	decision_yes[5] 	1236
scalar geant_cost_network.node[5].content_store 	decision_no[5] 	123331
scalar geant_cost_network.node[5].content_store 	decision_ratio[5] 	0.0099223710934678
scalar geant_cost_network.node[6].core_layer 	interests[6] 	69708
scalar geant_cost_network.node[6].core_layer 	data[6] 	61692
scalar geant_cost_network.node[6].content_store 	p_hit[6] 	0.11499397486659
scalar geant_cost_network.node[6].content_store 	hits[6] 	8016
scalar geant_cost_network.node[6].content_store 	misses[6] 	61692
scalar geant_cost_network.node[6].content_store 	decision_yes[6] 	618
scalar geant_cost_network.node[6].content_store 	decision_no[6] 	61074
scalar geant_cost_network.node[6].content_store 	decision_ratio[6] 	0.010017506321727
scalar geant_cost_network.node[7].core_layer 	interests[7] 	222532
scalar geant_cost_network.node[7].core_layer 	data[7] 	214439
scalar geant_cost_network.node[7].content_store 	p_hit[7] 	0.036367803282225
scalar geant_cost_network.node[7].content_store 	hits[7] 	8093
scalar geant_cost_network.node[7].content_store 	misses[7] 	214439
scalar geant_cost_network.node[7].content_store 	decision_yes[7] 	2145
scalar geant_cost_network.node[7].content_store 	decision_no[7] 	212294
scalar geant_cost_network.node[7].content_store 	decision_ratio[7] 	0.010002844631807
scalar geant_cost_network.node[8].core_layer 	interests[8] 	221418
scalar geant_cost_network.node[8].core_layer 	data[8] 	211514
scalar geant_cost_network.node[8].content_store 	p_hit[8] 	0.044725361081755
scalar geant_cost_network.node[8].content_store 	hits[8] 	9903
scalar geant_cost_network.node[8].content_store 	misses[8] 	211515
scalar geant_cost_network.node[8].content_store 	decision_yes[8] 	2070
scalar geant_cost_network.node[8].content_store 	decision_no[8] 	209444
scalar geant_cost_network.node[8].content_store 	decision_ratio[8] 	0.0097865862306987
scalar geant_cost_network.node[9].core_layer 	interests[9] 	342155
scalar geant_cost_network.node[9].core_layer 	data[9] 	270383
scalar geant_cost_network.node[9].content_store 	p_hit[9] 	0.20930864666598
scalar geant_cost_network.node[9].content_store 	hits[9] 	71616
scalar geant_cost_network.node[9].content_store 	misses[9] 	270539
scalar geant_cost_network.node[9].content_store 	decision_yes[9] 	2707
scalar geant_cost_network.node[9].content_store 	decision_no[9] 	267676
scalar geant_cost_network.node[9].content_store 	decision_ratio[9] 	0.010011724109874
scalar geant_cost_network.node[10].core_layer 	interests[10] 	189083
scalar geant_cost_network.node[10].core_layer 	data[10] 	119759
scalar geant_cost_network.node[10].content_store 	p_hit[10] 	0.36635763130477
scalar geant_cost_network.node[10].content_store 	hits[10] 	69272
scalar geant_cost_network.node[10].content_store 	misses[10] 	119811
scalar geant_cost_network.node[10].content_store 	decision_yes[10] 	1247
scalar geant_cost_network.node[10].content_store 	decision_no[10] 	118512
scalar geant_cost_network.node[10].content_store 	decision_ratio[10] 	0.010412578595346
scalar geant_cost_network.node[11].core_layer 	interests[11] 	0
scalar geant_cost_network.node[11].core_layer 	data[11] 	0
scalar geant_cost_network.node[11].content_store 	p_hit[11] 	-nan
scalar geant_cost_network.node[11].content_store 	hits[11] 	0
scalar geant_cost_network.node[11].content_store 	misses[11] 	0
scalar geant_cost_network.node[11].content_store 	decision_yes[11] 	0
scalar geant_cost_network.node[11].content_store 	decision_no[11] 	0
scalar geant_cost_network.node[11].content_store 	decision_ratio[11] 	0
scalar geant_cost_network.node[12].core_layer 	interests[12] 	284829
scalar geant_cost_network.node[12].core_layer 	data[12] 	214267
scalar geant_cost_network.node[12].content_store 	p_hit[12] 	0.24682177727689
scalar geant_cost_network.node[12].content_store 	hits[12] 	70302
scalar geant_cost_network.node[12].content_store 	misses[12] 	214527
scalar geant_cost_network.node[12].content_store 	decision_yes[12] 	2170
scalar geant_cost_network.node[12].content_store 	decision_no[12] 	212097
scalar geant_cost_network.node[12].content_store 	decision_ratio[12] 	0.010127551139466
scalar geant_cost_network.node[13].core_layer 	interests[13] 	29344
scalar geant_cost_network.node[13].core_layer 	data[13] 	6152
scalar geant_cost_network.node[13].content_store 	p_hit[13] 	0.79034896401309
scalar geant_cost_network.node[13].content_store 	hits[13] 	23192
scalar geant_cost_network.node[13].content_store 	misses[13] 	6152
scalar geant_cost_network.node[13].content_store 	decision_yes[13] 	61
scalar geant_cost_network.node[13].content_store 	decision_no[13] 	6091
scalar geant_cost_network.node[13].content_store 	decision_ratio[13] 	0.0099154746423927
scalar geant_cost_network.node[14].core_layer 	interests[14] 	64420
scalar geant_cost_network.node[14].core_layer 	data[14] 	45952
scalar geant_cost_network.node[14].content_store 	p_hit[14] 	0.28643278484943
scalar geant_cost_network.node[14].content_store 	hits[14] 	18452
scalar geant_cost_network.node[14].content_store 	misses[14] 	45968
scalar geant_cost_network.node[14].content_store 	decision_yes[14] 	423
scalar geant_cost_network.node[14].content_store 	decision_no[14] 	45529
scalar geant_cost_network.node[14].content_store 	decision_ratio[14] 	0.0092052576601671
scalar geant_cost_network.node[15].core_layer 	interests[15] 	0
scalar geant_cost_network.node[15].core_layer 	data[15] 	0
scalar geant_cost_network.node[15].content_store 	p_hit[15] 	-nan
scalar geant_cost_network.node[15].content_store 	hits[15] 	0
scalar geant_cost_network.node[15].content_store 	misses[15] 	0
scalar geant_cost_network.node[15].content_store 	decision_yes[15] 	0
scalar geant_cost_network.node[15].content_store 	decision_no[15] 	0
scalar geant_cost_network.node[15].content_store 	decision_ratio[15] 	0
scalar geant_cost_network.node[16].core_layer 	interests[16] 	0
scalar geant_cost_network.node[16].core_layer 	data[16] 	0
scalar geant_cost_network.node[16].content_store 	p_hit[16] 	-nan
scalar geant_cost_network.node[16].content_store 	hits[16] 	0
scalar geant_cost_network.node[16].content_store 	misses[16] 	0
scalar geant_cost_network.node[16].content_store 	decision_yes[16] 	0
scalar geant_cost_network.node[16].content_store 	decision_no[16] 	0
scalar geant_cost_network.node[16].content_store 	decision_ratio[16] 	0
scalar geant_cost_network.node[17].core_layer 	interests[17] 	0
scalar geant_cost_network.node[17].core_layer 	data[17] 	0
scalar geant_cost_network.node[17].content_store 	p_hit[17] 	-nan
scalar geant_cost_network.node[17].content_store 	hits[17] 	0
scalar geant_cost_network.node[17].content_store 	misses[17] 	0
scalar geant_cost_network.node[17].content_store 	decision_yes[17] 	0
scalar geant_cost_network.node[17].content_store 	decision_no[17] 	0
scalar geant_cost_network.node[17].content_store 	decision_ratio[17] 	0
scalar geant_cost_network.node[18].core_layer 	interests[18] 	96550
scalar geant_cost_network.node[18].core_layer 	data[18] 	82233
scalar geant_cost_network.node[18].content_store 	p_hit[18] 	0.14829621957535
scalar geant_cost_network.node[18].content_store 	hits[18] 	14318
scalar geant_cost_network.node[18].content_store 	misses[18] 	82232
scalar geant_cost_network.node[18].content_store 	decision_yes[18] 	786
scalar geant_cost_network.node[18].content_store 	decision_no[18] 	81447
scalar geant_cost_network.node[18].content_store 	decision_ratio[18] 	0.0095582065594105
scalar geant_cost_network.node[19].core_layer 	interests[19] 	0
scalar geant_cost_network.node[19].core_layer 	data[19] 	0
scalar geant_cost_network.node[19].content_store 	p_hit[19] 	-nan
scalar geant_cost_network.node[19].content_store 	hits[19] 	0
scalar geant_cost_network.node[19].content_store 	misses[19] 	0
scalar geant_cost_network.node[19].content_store 	decision_yes[19] 	0
scalar geant_cost_network.node[19].content_store 	decision_no[19] 	0
scalar geant_cost_network.node[19].content_store 	decision_ratio[19] 	0
scalar geant_cost_network.node[20].core_layer 	interests[20] 	180811
scalar geant_cost_network.node[20].core_layer 	data[20] 	120279
scalar geant_cost_network.node[20].content_store 	p_hit[20] 	0.33458141374142
scalar geant_cost_network.node[20].content_store 	hits[20] 	60496
scalar geant_cost_network.node[20].content_store 	misses[20] 	120315
scalar geant_cost_network.node[20].content_store 	decision_yes[20] 	1219
scalar geant_cost_network.node[20].content_store 	decision_no[20] 	119060
scalar geant_cost_network.node[20].content_store 	decision_ratio[20] 	0.010134769993099
scalar geant_cost_network.node[21].core_layer 	interests[21] 	155358
scalar geant_cost_network.node[21].core_layer 	data[21] 	148680
scalar geant_cost_network.node[21].content_store 	p_hit[21] 	0.042984590429846
scalar geant_cost_network.node[21].content_store 	hits[21] 	6678
scalar geant_cost_network.node[21].content_store 	misses[21] 	148680
scalar geant_cost_network.node[21].content_store 	decision_yes[21] 	1514
scalar geant_cost_network.node[21].content_store 	decision_no[21] 	147166
scalar geant_cost_network.node[21].content_store 	decision_ratio[21] 	0.010182943233791
scalar geant_cost_network.node[22].core_layer 	interests[22] 	150317
scalar geant_cost_network.node[22].core_layer 	repo_load[22] 	150317
scalar geant_cost_network.node[22].core_layer 	data[22] 	0
scalar geant_cost_network.node[22].content_store 	p_hit[22] 	0
scalar geant_cost_network.node[22].content_store 	hits[22] 	0
scalar geant_cost_network.node[22].content_store 	misses[22] 	150317
scalar geant_cost_network.node[22].content_store 	decision_yes[22] 	0
scalar geant_cost_network.node[22].content_store 	decision_no[22] 	150317
scalar geant_cost_network.node[22].content_store 	decision_ratio[22] 	0
scalar geant_cost_network.node[23].core_layer 	interests[23] 	144792
scalar geant_cost_network.node[23].core_layer 	repo_load[23] 	144792
scalar geant_cost_network.node[23].core_layer 	data[23] 	0
scalar geant_cost_network.node[23].content_store 	p_hit[23] 	0
scalar geant_cost_network.node[23].content_store 	hits[23] 	0
scalar geant_cost_network.node[23].content_store 	misses[23] 	144792
scalar geant_cost_network.node[23].content_store 	decision_yes[23] 	0
scalar geant_cost_network.node[23].content_store 	decision_no[23] 	144792
scalar geant_cost_network.node[23].content_store 	decision_ratio[23] 	0
scalar geant_cost_network.node[24].core_layer 	interests[24] 	148680
scalar geant_cost_network.node[24].core_layer 	repo_load[24] 	148680
scalar geant_cost_network.node[24].core_layer 	data[24] 	0
scalar geant_cost_network.node[24].content_store 	p_hit[24] 	0
scalar geant_cost_network.node[24].content_store 	hits[24] 	0
scalar geant_cost_network.node[24].content_store 	misses[24] 	148680
scalar geant_cost_network.node[24].content_store 	decision_yes[24] 	0
scalar geant_cost_network.node[24].content_store 	decision_no[24] 	148680
scalar geant_cost_network.node[24].content_store 	decision_ratio[24] 	0
scalar geant_cost_network.client[5] 	hdistance[5] 	2.4255043987456
scalar geant_cost_network.client[5] 	downloads[5] 	180165
scalar geant_cost_network.client[5] 	avg_time[5] 	0.007554497317
scalar geant_cost_network.client[5] 	interests_sent[5] 	180216
scalar geant_cost_network.client[9] 	hdistance[9] 	2.5041819727796
scalar geant_cost_network.client[9] 	downloads[9] 	179939
scalar geant_cost_network.client[9] 	avg_time[9] 	0.004922832386
scalar geant_cost_network.client[9] 	interests_sent[9] 	179992
scalar geant_cost_network.client[10] 	hdistance[10] 	3.1123141186299
scalar geant_cost_network.client[10] 	downloads[10] 	179550
scalar geant_cost_network.client[10] 	avg_time[10] 	0.006172428801
scalar geant_cost_network.client[10] 	interests_sent[10] 	179602
scalar geant_cost_network.client[12] 	hdistance[12] 	2.6078515195594
scalar geant_cost_network.client[12] 	downloads[12] 	180118
scalar geant_cost_network.client[12] 	avg_time[12] 	0.005757950519
scalar geant_cost_network.client[12] 	interests_sent[12] 	180179
scalar geant_cost_network.client[20] 	hdistance[20] 	2.7049110946523
scalar geant_cost_network.client[20] 	downloads[20] 	179573
scalar geant_cost_network.client[20] 	avg_time[20] 	0.005392533539
scalar geant_cost_network.client[20] 	interests_sent[20] 	179609
