version 2
run General-10-20140630-12:10:27-25719
>>>>>>> e1705686414f379fcb9d06a9e50f5d7fe13c2c97
attr D fix0.01
attr F nrr
attr R lru
attr a 1
attr configname General
attr csize 1e3
attr ctlg 1e5
attr datetime 20140630-12:10:27
>>>>>>> e1705686414f379fcb9d06a9e50f5d7fe13c2c97
attr experiment General
attr inifile omnetpp.ini
attr iterationvars "$net=geant_cost, $rep=12, $priceratiovalue=10, $weights=0.333_0.333_0.334, $lambda=100, $a=1, $ctlg=1e5, $F=nrr, $ttl=1000, $D=fix0.01, $xi=1, $R=lru, $csize=1e3, $pricebits=0, $window=60, $variance=0.05, $mytime=1800"
attr iterationvars2 "$net=geant_cost, $rep=12, $priceratiovalue=10, $weights=0.333_0.333_0.334, $lambda=100, $a=1, $ctlg=1e5, $F=nrr, $ttl=1000, $D=fix0.01, $xi=1, $R=lru, $csize=1e3, $pricebits=0, $window=60, $variance=0.05, $mytime=1800, $repetition=0"
attr lambda 100
attr measurement "$net=geant_cost, $rep=12, $priceratiovalue=10, $weights=0.333_0.333_0.334, $lambda=100, $a=1, $ctlg=1e5, $F=nrr, $ttl=1000, $D=fix0.01, $xi=1, $R=lru, $csize=1e3, $pricebits=0, $window=60, $variance=0.05, $mytime=1800"
attr mytime 1800
attr net geant_cost
attr network "networks.${net=geant_cost, abilene_cost}_network"
attr pricebits 0
attr priceratiovalue 10
attr processid 25719
>>>>>>> e1705686414f379fcb9d06a9e50f5d7fe13c2c97
attr rep 12
attr repetition 0
attr replication #0
attr resultdir results
attr runnumber 10
attr seedset 12
attr ttl 1000
attr variance 0.05
attr weights 0.333_0.333_0.334
attr window 60
attr xi 1

scalar . 	a 	1
scalar . 	csize 	1e3
scalar . 	ctlg 	1e5
scalar . 	lambda 	100
scalar . 	mytime 	1800
scalar . 	pricebits 	0
scalar . 	priceratiovalue 	10
scalar . 	rep 	12
scalar . 	ttl 	1000
scalar . 	variance 	0.05
scalar . 	window 	60
scalar . 	xi 	1
scalar geant_cost_network.content_distribution 	repo-0 	22
scalar geant_cost_network.content_distribution 	repo-1 	23
scalar geant_cost_network.content_distribution 	repo-2 	24
scalar geant_cost_network.content_distribution 	client-0 	20
scalar geant_cost_network.content_distribution 	client-1 	10
scalar geant_cost_network.content_distribution 	client-2 	12
scalar geant_cost_network.content_distribution 	client-3 	9
scalar geant_cost_network.content_distribution 	client-4 	5
scalar geant_cost_network.content_distribution 	repo-0_card 	33376
scalar geant_cost_network.content_distribution 	repo-1_card 	33439
scalar geant_cost_network.content_distribution 	repo-2_card 	33185
scalar geant_cost_network.statistics 	repo_popularity[0] 	0.3146103286495
scalar geant_cost_network.statistics 	repo_popularity[1] 	0.33182472258399
scalar geant_cost_network.statistics 	repo_popularity[2] 	0.35356494876651
scalar geant_cost_network.statistics 	stabilization_time 	36060
scalar geant_cost_network.node[7].face$o[4].channel 	price[7] 	0
scalar geant_cost_network.node[7].face$o[4].channel 	represented_price[7] 	0
scalar geant_cost_network.node[8].face$o[3].channel 	price[8] 	0
scalar geant_cost_network.node[8].face$o[3].channel 	represented_price[8] 	0
scalar geant_cost_network.node[21].face$o[5].channel 	price[21] 	0
scalar geant_cost_network.node[21].face$o[5].channel 	represented_price[21] 	0
scalar geant_cost_network.node[22].face$o[1].channel 	price[22] 	0
scalar geant_cost_network.node[22].face$o[1].channel 	represented_price[22] 	0
scalar geant_cost_network.node[23].face$o[1].channel 	price[23] 	1
scalar geant_cost_network.node[23].face$o[1].channel 	represented_price[23] 	1
scalar geant_cost_network.node[24].face$o[1].channel 	price[24] 	10
scalar geant_cost_network.node[24].face$o[1].channel 	represented_price[24] 	10
scalar geant_cost_network.statistics 	p_hit 	0.15866085700665
scalar geant_cost_network.statistics 	interests 	114108.8
scalar geant_cost_network.statistics 	data 	78167.28
scalar geant_cost_network.statistics 	hdistance 	2.6719728723069
scalar geant_cost_network.statistics 	avg_time 	0.006001638884
scalar geant_cost_network.statistics 	downloads 	898252
scalar geant_cost_network.statistics 	total_cost 	1619737
scalar geant_cost_network.statistics 	total_replicas 	100000
scalar geant_cost_network.statistics 	inner_hit 	0.50419258738082
scalar geant_cost_network.statistics 	interests_sent 	898533
scalar geant_cost_network.node[0].core_layer 	interests[0] 	0
scalar geant_cost_network.node[0].core_layer 	data[0] 	0
scalar geant_cost_network.node[0].core_layer 	repo_int[0] 	445360
>>>>>>> e1705686414f379fcb9d06a9e50f5d7fe13c2c97
scalar geant_cost_network.node[0].content_store 	p_hit[0] 	-nan
scalar geant_cost_network.node[0].content_store 	hits[0] 	0
scalar geant_cost_network.node[0].content_store 	misses[0] 	0
scalar geant_cost_network.node[0].content_store 	decision_yes[0] 	0
scalar geant_cost_network.node[0].content_store 	decision_no[0] 	0
scalar geant_cost_network.node[0].content_store 	decision_ratio[0] 	0
scalar geant_cost_network.node[1].core_layer 	interests[1] 	0
scalar geant_cost_network.node[1].core_layer 	data[1] 	0
scalar geant_cost_network.node[1].content_store 	p_hit[1] 	-nan
scalar geant_cost_network.node[1].content_store 	hits[1] 	0
scalar geant_cost_network.node[1].content_store 	misses[1] 	0
scalar geant_cost_network.node[1].content_store 	decision_yes[1] 	0
scalar geant_cost_network.node[1].content_store 	decision_no[1] 	0
scalar geant_cost_network.node[1].content_store 	decision_ratio[1] 	0
scalar geant_cost_network.node[2].core_layer 	interests[2] 	0
scalar geant_cost_network.node[2].core_layer 	data[2] 	0
scalar geant_cost_network.node[2].content_store 	p_hit[2] 	-nan
scalar geant_cost_network.node[2].content_store 	hits[2] 	0
scalar geant_cost_network.node[2].content_store 	misses[2] 	0
scalar geant_cost_network.node[2].content_store 	decision_yes[2] 	0
scalar geant_cost_network.node[2].content_store 	decision_no[2] 	0
scalar geant_cost_network.node[2].content_store 	decision_ratio[2] 	0
scalar geant_cost_network.node[3].core_layer 	interests[3] 	162157
scalar geant_cost_network.node[3].core_layer 	data[3] 	139498
scalar geant_cost_network.node[3].content_store 	p_hit[3] 	0.13972878136621
scalar geant_cost_network.node[3].content_store 	hits[3] 	22658
scalar geant_cost_network.node[3].content_store 	misses[3] 	139499
scalar geant_cost_network.node[3].content_store 	decision_yes[3] 	1368
scalar geant_cost_network.node[3].content_store 	decision_no[3] 	138130
scalar geant_cost_network.node[3].content_store 	decision_ratio[3] 	0.0098065922092073
scalar geant_cost_network.node[4].core_layer 	interests[4] 	200397
scalar geant_cost_network.node[4].core_layer 	data[4] 	191615
scalar geant_cost_network.node[4].content_store 	p_hit[4] 	0.043818021227863
scalar geant_cost_network.node[4].content_store 	hits[4] 	8781
scalar geant_cost_network.node[4].content_store 	misses[4] 	191616
scalar geant_cost_network.node[4].content_store 	decision_yes[4] 	1874
scalar geant_cost_network.node[4].content_store 	decision_no[4] 	189741
scalar geant_cost_network.node[4].content_store 	decision_ratio[4] 	0.00978002765963
scalar geant_cost_network.node[5].core_layer 	interests[5] 	187749
scalar geant_cost_network.node[5].core_layer 	data[5] 	123940
scalar geant_cost_network.node[5].content_store 	p_hit[5] 	0.3395916889038
scalar geant_cost_network.node[5].content_store 	hits[5] 	63758
scalar geant_cost_network.node[5].content_store 	misses[5] 	123991
scalar geant_cost_network.node[5].content_store 	decision_yes[5] 	1208
scalar geant_cost_network.node[5].content_store 	decision_no[5] 	122732
scalar geant_cost_network.node[5].content_store 	decision_ratio[5] 	0.0097466516056156
scalar geant_cost_network.node[6].core_layer 	interests[6] 	70103
scalar geant_cost_network.node[6].core_layer 	data[6] 	62423
scalar geant_cost_network.node[6].content_store 	p_hit[6] 	0.1095530861732
scalar geant_cost_network.node[6].content_store 	hits[6] 	7680
scalar geant_cost_network.node[6].content_store 	misses[6] 	62423
scalar geant_cost_network.node[6].content_store 	decision_yes[6] 	624
scalar geant_cost_network.node[6].content_store 	decision_no[6] 	61799
scalar geant_cost_network.node[6].content_store 	decision_ratio[6] 	0.0099963154606475
scalar geant_cost_network.node[7].core_layer 	interests[7] 	220764
scalar geant_cost_network.node[7].core_layer 	data[7] 	213646
scalar geant_cost_network.node[7].content_store 	p_hit[7] 	0.032233516334185
scalar geant_cost_network.node[7].content_store 	hits[7] 	7116
scalar geant_cost_network.node[7].content_store 	misses[7] 	213648
scalar geant_cost_network.node[7].content_store 	decision_yes[7] 	2195
scalar geant_cost_network.node[7].content_store 	decision_no[7] 	211451
scalar geant_cost_network.node[7].content_store 	decision_ratio[7] 	0.010274004661917
scalar geant_cost_network.node[8].core_layer 	interests[8] 	225925
scalar geant_cost_network.node[8].core_layer 	data[8] 	216872
scalar geant_cost_network.node[8].content_store 	p_hit[8] 	0.040070819962377
scalar geant_cost_network.node[8].content_store 	hits[8] 	9053
scalar geant_cost_network.node[8].content_store 	misses[8] 	216872
scalar geant_cost_network.node[8].content_store 	decision_yes[8] 	2167
scalar geant_cost_network.node[8].content_store 	decision_no[8] 	214705
scalar geant_cost_network.node[8].content_store 	decision_ratio[8] 	0.0099920690545575
scalar geant_cost_network.node[9].core_layer 	interests[9] 	344783
scalar geant_cost_network.node[9].core_layer 	data[9] 	271767
scalar geant_cost_network.node[9].content_store 	p_hit[9] 	0.21137643097252
scalar geant_cost_network.node[9].content_store 	hits[9] 	72879
scalar geant_cost_network.node[9].content_store 	misses[9] 	271904
scalar geant_cost_network.node[9].content_store 	decision_yes[9] 	2578
scalar geant_cost_network.node[9].content_store 	decision_no[9] 	269189
scalar geant_cost_network.node[9].content_store 	decision_ratio[9] 	0.0094860671089573
scalar geant_cost_network.node[10].core_layer 	interests[10] 	188979
scalar geant_cost_network.node[10].core_layer 	data[10] 	120674
scalar geant_cost_network.node[10].content_store 	p_hit[10] 	0.3610983230941
scalar geant_cost_network.node[10].content_store 	hits[10] 	68240
scalar geant_cost_network.node[10].content_store 	misses[10] 	120739
scalar geant_cost_network.node[10].content_store 	decision_yes[10] 	1194
scalar geant_cost_network.node[10].content_store 	decision_no[10] 	119480
scalar geant_cost_network.node[10].content_store 	decision_ratio[10] 	0.0098944263055836
>>>>>>> e1705686414f379fcb9d06a9e50f5d7fe13c2c97
scalar geant_cost_network.node[11].core_layer 	interests[11] 	0
scalar geant_cost_network.node[11].core_layer 	data[11] 	0
scalar geant_cost_network.node[11].content_store 	p_hit[11] 	-nan
scalar geant_cost_network.node[11].content_store 	hits[11] 	0
scalar geant_cost_network.node[11].content_store 	misses[11] 	0
scalar geant_cost_network.node[11].content_store 	decision_yes[11] 	0
scalar geant_cost_network.node[11].content_store 	decision_no[11] 	0
scalar geant_cost_network.node[11].content_store 	decision_ratio[11] 	0
scalar geant_cost_network.node[12].core_layer 	interests[12] 	283176
scalar geant_cost_network.node[12].core_layer 	data[12] 	214324
scalar geant_cost_network.node[12].content_store 	p_hit[12] 	0.24226276238099
scalar geant_cost_network.node[12].content_store 	hits[12] 	68603
scalar geant_cost_network.node[12].content_store 	misses[12] 	214573
scalar geant_cost_network.node[12].content_store 	decision_yes[12] 	2175
scalar geant_cost_network.node[12].content_store 	decision_no[12] 	212149
scalar geant_cost_network.node[12].content_store 	decision_ratio[12] 	0.010148186857281
scalar geant_cost_network.node[13].core_layer 	interests[13] 	30183
scalar geant_cost_network.node[13].core_layer 	data[13] 	6541
scalar geant_cost_network.node[13].content_store 	p_hit[13] 	0.78325547493622
scalar geant_cost_network.node[13].content_store 	hits[13] 	23641
scalar geant_cost_network.node[13].content_store 	misses[13] 	6542
scalar geant_cost_network.node[13].content_store 	decision_yes[13] 	63
scalar geant_cost_network.node[13].content_store 	decision_no[13] 	6478
scalar geant_cost_network.node[13].content_store 	decision_ratio[13] 	0.0096315548081333
scalar geant_cost_network.node[14].core_layer 	interests[14] 	64659
scalar geant_cost_network.node[14].core_layer 	data[14] 	44053
scalar geant_cost_network.node[14].content_store 	p_hit[14] 	0.31845528078071
scalar geant_cost_network.node[14].content_store 	hits[14] 	20591
scalar geant_cost_network.node[14].content_store 	misses[14] 	44068
scalar geant_cost_network.node[14].content_store 	decision_yes[14] 	437
scalar geant_cost_network.node[14].content_store 	decision_no[14] 	43616
scalar geant_cost_network.node[14].content_store 	decision_ratio[14] 	0.0099198692484053
scalar geant_cost_network.node[15].core_layer 	interests[15] 	1
scalar geant_cost_network.node[15].core_layer 	data[15] 	1
scalar geant_cost_network.node[15].content_store 	p_hit[15] 	0
scalar geant_cost_network.node[15].content_store 	hits[15] 	0
scalar geant_cost_network.node[15].content_store 	misses[15] 	1
scalar geant_cost_network.node[15].content_store 	decision_yes[15] 	0
scalar geant_cost_network.node[15].content_store 	decision_no[15] 	1
>>>>>>> e1705686414f379fcb9d06a9e50f5d7fe13c2c97
scalar geant_cost_network.node[15].content_store 	decision_ratio[15] 	0
scalar geant_cost_network.node[16].core_layer 	interests[16] 	0
scalar geant_cost_network.node[16].core_layer 	data[16] 	0
scalar geant_cost_network.node[16].content_store 	p_hit[16] 	-nan
scalar geant_cost_network.node[16].content_store 	hits[16] 	0
scalar geant_cost_network.node[16].content_store 	misses[16] 	0
scalar geant_cost_network.node[16].content_store 	decision_yes[16] 	0
scalar geant_cost_network.node[16].content_store 	decision_no[16] 	0
scalar geant_cost_network.node[16].content_store 	decision_ratio[16] 	0
scalar geant_cost_network.node[17].core_layer 	interests[17] 	0
scalar geant_cost_network.node[17].core_layer 	data[17] 	0
scalar geant_cost_network.node[17].content_store 	p_hit[17] 	-nan
scalar geant_cost_network.node[17].content_store 	hits[17] 	0
scalar geant_cost_network.node[17].content_store 	misses[17] 	0
scalar geant_cost_network.node[17].content_store 	decision_yes[17] 	0
scalar geant_cost_network.node[17].content_store 	decision_no[17] 	0
scalar geant_cost_network.node[17].content_store 	decision_ratio[17] 	0
scalar geant_cost_network.node[18].core_layer 	interests[18] 	94704
scalar geant_cost_network.node[18].core_layer 	data[18] 	82378
scalar geant_cost_network.node[18].content_store 	p_hit[18] 	0.13015289744889
scalar geant_cost_network.node[18].content_store 	hits[18] 	12326
scalar geant_cost_network.node[18].content_store 	misses[18] 	82378
scalar geant_cost_network.node[18].content_store 	decision_yes[18] 	812
scalar geant_cost_network.node[18].content_store 	decision_no[18] 	81565
scalar geant_cost_network.node[18].content_store 	decision_ratio[18] 	0.0098571203127086
>>>>>>> e1705686414f379fcb9d06a9e50f5d7fe13c2c97
scalar geant_cost_network.node[19].core_layer 	interests[19] 	0
scalar geant_cost_network.node[19].core_layer 	data[19] 	0
scalar geant_cost_network.node[19].content_store 	p_hit[19] 	-nan
scalar geant_cost_network.node[19].content_store 	hits[19] 	0
scalar geant_cost_network.node[19].content_store 	misses[19] 	0
scalar geant_cost_network.node[19].content_store 	decision_yes[19] 	0
scalar geant_cost_network.node[19].content_store 	decision_no[19] 	0
scalar geant_cost_network.node[19].content_store 	decision_ratio[19] 	0
scalar geant_cost_network.node[20].core_layer 	interests[20] 	180527
scalar geant_cost_network.node[20].core_layer 	data[20] 	119643
scalar geant_cost_network.node[20].content_store 	p_hit[20] 	0.33702991796241
scalar geant_cost_network.node[20].content_store 	hits[20] 	60843
scalar geant_cost_network.node[20].content_store 	misses[20] 	119684
scalar geant_cost_network.node[20].content_store 	decision_yes[20] 	1222
scalar geant_cost_network.node[20].content_store 	decision_no[20] 	118421
scalar geant_cost_network.node[20].content_store 	decision_ratio[20] 	0.010213719147798
scalar geant_cost_network.node[21].core_layer 	interests[21] 	153253
scalar geant_cost_network.node[21].core_layer 	data[21] 	146807
scalar geant_cost_network.node[21].content_store 	p_hit[21] 	0.042061166828708
scalar geant_cost_network.node[21].content_store 	hits[21] 	6446
scalar geant_cost_network.node[21].content_store 	misses[21] 	146807
scalar geant_cost_network.node[21].content_store 	decision_yes[21] 	1510
scalar geant_cost_network.node[21].content_store 	decision_no[21] 	145297
scalar geant_cost_network.node[21].content_store 	decision_ratio[21] 	0.010285613083845
scalar geant_cost_network.node[22].core_layer 	interests[22] 	146886
scalar geant_cost_network.node[22].core_layer 	repo_load[22] 	146886
scalar geant_cost_network.node[22].core_layer 	data[22] 	0
scalar geant_cost_network.node[22].content_store 	p_hit[22] 	0
scalar geant_cost_network.node[22].content_store 	hits[22] 	0
scalar geant_cost_network.node[22].content_store 	misses[22] 	146886
scalar geant_cost_network.node[22].content_store 	decision_yes[22] 	0
scalar geant_cost_network.node[22].content_store 	decision_no[22] 	146886
scalar geant_cost_network.node[22].content_store 	decision_ratio[22] 	0
scalar geant_cost_network.node[23].core_layer 	interests[23] 	151667
scalar geant_cost_network.node[23].core_layer 	repo_load[23] 	151667
scalar geant_cost_network.node[23].core_layer 	data[23] 	0
scalar geant_cost_network.node[23].content_store 	p_hit[23] 	0
scalar geant_cost_network.node[23].content_store 	hits[23] 	0
scalar geant_cost_network.node[23].content_store 	misses[23] 	151667
scalar geant_cost_network.node[23].content_store 	decision_yes[23] 	0
scalar geant_cost_network.node[23].content_store 	decision_no[23] 	151667
scalar geant_cost_network.node[23].content_store 	decision_ratio[23] 	0
scalar geant_cost_network.node[24].core_layer 	interests[24] 	146807
scalar geant_cost_network.node[24].core_layer 	repo_load[24] 	146807
scalar geant_cost_network.node[24].core_layer 	data[24] 	0
scalar geant_cost_network.node[24].content_store 	p_hit[24] 	0
scalar geant_cost_network.node[24].content_store 	hits[24] 	0
scalar geant_cost_network.node[24].content_store 	misses[24] 	146807
scalar geant_cost_network.node[24].content_store 	decision_yes[24] 	0
scalar geant_cost_network.node[24].content_store 	decision_no[24] 	146807
scalar geant_cost_network.node[24].content_store 	decision_ratio[24] 	0
scalar geant_cost_network.client[5] 	hdistance[5] 	2.4339272002938
scalar geant_cost_network.client[5] 	downloads[5] 	179726
scalar geant_cost_network.client[5] 	avg_time[5] 	0.007523793526
scalar geant_cost_network.client[5] 	interests_sent[5] 	179775
scalar geant_cost_network.client[9] 	hdistance[9] 	2.4901649622967
scalar geant_cost_network.client[9] 	downloads[9] 	180223
scalar geant_cost_network.client[9] 	avg_time[9] 	0.004955402864
scalar geant_cost_network.client[9] 	interests_sent[9] 	180270
scalar geant_cost_network.client[10] 	hdistance[10] 	3.1127876839564
scalar geant_cost_network.client[10] 	downloads[10] 	179798
scalar geant_cost_network.client[10] 	avg_time[10] 	0.006246636902
scalar geant_cost_network.client[10] 	interests_sent[10] 	179863
scalar geant_cost_network.client[12] 	hdistance[12] 	2.6096169200619
scalar geant_cost_network.client[12] 	downloads[12] 	179101
scalar geant_cost_network.client[12] 	avg_time[12] 	0.005893987863
scalar geant_cost_network.client[12] 	interests_sent[12] 	179180
scalar geant_cost_network.client[20] 	hdistance[20] 	2.7133675949254
scalar geant_cost_network.client[20] 	downloads[20] 	179404
scalar geant_cost_network.client[20] 	avg_time[20] 	0.005388373269
>>>>>>> e1705686414f379fcb9d06a9e50f5d7fe13c2c97
scalar geant_cost_network.client[20] 	interests_sent[20] 	179445
