version 2
run General-18-20140626-17:23:30-10791
attr D fix0.01
attr F nrr
attr R lru
attr a 1
attr configname General
attr csize 1e3
attr ctlg 1e5
attr datetime 20140626-17:23:30
attr experiment General
attr inifile omnetpp.ini
attr iterationvars "$net=geant_cost, $rep=6, $priceratiovalue=10, $weights=0.333_0.333_0.334, $lambda=100, $a=1, $ctlg=1e5, $F=nrr, $ttl=1000, $D=fix0.01, $xi=1, $R=lru, $csize=1e3, $pricebits=0, $mytime=1800"
attr iterationvars2 "$net=geant_cost, $rep=6, $priceratiovalue=10, $weights=0.333_0.333_0.334, $lambda=100, $a=1, $ctlg=1e5, $F=nrr, $ttl=1000, $D=fix0.01, $xi=1, $R=lru, $csize=1e3, $pricebits=0, $mytime=1800, $repetition=0"
attr lambda 100
attr measurement "$net=geant_cost, $rep=6, $priceratiovalue=10, $weights=0.333_0.333_0.334, $lambda=100, $a=1, $ctlg=1e5, $F=nrr, $ttl=1000, $D=fix0.01, $xi=1, $R=lru, $csize=1e3, $pricebits=0, $mytime=1800"
attr mytime 1800
attr net geant_cost
attr network "networks.${net=geant_cost, abilene_cost}_network"
attr pricebits 0
attr priceratiovalue 10
attr processid 10791
attr rep 6
attr repetition 0
attr replication #0
attr resultdir results
attr runnumber 18
attr seedset 6
attr ttl 1000
attr weights 0.333_0.333_0.334
attr xi 1

scalar . 	a 	1
scalar . 	csize 	1e3
scalar . 	ctlg 	1e5
scalar . 	lambda 	100
scalar . 	mytime 	1800
scalar . 	pricebits 	0
scalar . 	priceratiovalue 	10
scalar . 	rep 	6
scalar . 	ttl 	1000
scalar . 	xi 	1
scalar geant_cost_network.content_distribution 	repo-0 	22
scalar geant_cost_network.content_distribution 	repo-1 	23
scalar geant_cost_network.content_distribution 	repo-2 	24
scalar geant_cost_network.content_distribution 	client-0 	20
scalar geant_cost_network.content_distribution 	client-1 	10
scalar geant_cost_network.content_distribution 	client-2 	12
scalar geant_cost_network.content_distribution 	client-3 	9
scalar geant_cost_network.content_distribution 	client-4 	5
scalar geant_cost_network.content_distribution 	repo-0_card 	33436
scalar geant_cost_network.content_distribution 	repo-1_card 	33143
scalar geant_cost_network.content_distribution 	repo-2_card 	33421
scalar geant_cost_network.statistics 	repo_popularity[0] 	0.39107817255936
scalar geant_cost_network.statistics 	repo_popularity[1] 	0.30968687902184
scalar geant_cost_network.statistics 	repo_popularity[2] 	0.2992349484188
scalar geant_cost_network.statistics 	stabilization_time 	36060
scalar geant_cost_network.node[7].face$o[4].channel 	price[7] 	0
scalar geant_cost_network.node[7].face$o[4].channel 	represented_price[7] 	0
scalar geant_cost_network.node[8].face$o[3].channel 	price[8] 	0
scalar geant_cost_network.node[8].face$o[3].channel 	represented_price[8] 	0
scalar geant_cost_network.node[21].face$o[5].channel 	price[21] 	0
scalar geant_cost_network.node[21].face$o[5].channel 	represented_price[21] 	0
scalar geant_cost_network.node[22].face$o[1].channel 	price[22] 	0
scalar geant_cost_network.node[22].face$o[1].channel 	represented_price[22] 	0
scalar geant_cost_network.node[23].face$o[1].channel 	price[23] 	1
scalar geant_cost_network.node[23].face$o[1].channel 	represented_price[23] 	1
scalar geant_cost_network.node[24].face$o[1].channel 	price[24] 	10
scalar geant_cost_network.node[24].face$o[1].channel 	represented_price[24] 	10
scalar geant_cost_network.statistics 	p_hit 	0.15982083460201
scalar geant_cost_network.statistics 	interests 	114423.88
scalar geant_cost_network.statistics 	data 	78369.64
scalar geant_cost_network.statistics 	hdistance 	2.6671426419596
scalar geant_cost_network.statistics 	avg_time 	0.006020231653
scalar geant_cost_network.statistics 	downloads 	901031
scalar geant_cost_network.statistics 	total_cost 	1601796
scalar geant_cost_network.statistics 	total_replicas 	100000
scalar geant_cost_network.statistics 	inner_hit 	0.50770950167086
scalar geant_cost_network.statistics 	interests_sent 	901354
scalar geant_cost_network.node[0].core_layer 	interests[0] 	0
scalar geant_cost_network.node[0].core_layer 	data[0] 	0
scalar geant_cost_network.node[0].core_layer 	repo_int[0] 	443569
scalar geant_cost_network.node[0].content_store 	p_hit[0] 	-nan
scalar geant_cost_network.node[0].content_store 	hits[0] 	0
scalar geant_cost_network.node[0].content_store 	misses[0] 	0
scalar geant_cost_network.node[0].content_store 	decision_yes[0] 	0
scalar geant_cost_network.node[0].content_store 	decision_no[0] 	0
scalar geant_cost_network.node[0].content_store 	decision_ratio[0] 	0
scalar geant_cost_network.node[1].core_layer 	interests[1] 	0
scalar geant_cost_network.node[1].core_layer 	data[1] 	0
scalar geant_cost_network.node[1].content_store 	p_hit[1] 	-nan
scalar geant_cost_network.node[1].content_store 	hits[1] 	0
scalar geant_cost_network.node[1].content_store 	misses[1] 	0
scalar geant_cost_network.node[1].content_store 	decision_yes[1] 	0
scalar geant_cost_network.node[1].content_store 	decision_no[1] 	0
scalar geant_cost_network.node[1].content_store 	decision_ratio[1] 	0
scalar geant_cost_network.node[2].core_layer 	interests[2] 	0
scalar geant_cost_network.node[2].core_layer 	data[2] 	0
scalar geant_cost_network.node[2].content_store 	p_hit[2] 	-nan
scalar geant_cost_network.node[2].content_store 	hits[2] 	0
scalar geant_cost_network.node[2].content_store 	misses[2] 	0
scalar geant_cost_network.node[2].content_store 	decision_yes[2] 	0
scalar geant_cost_network.node[2].content_store 	decision_no[2] 	0
scalar geant_cost_network.node[2].content_store 	decision_ratio[2] 	0
scalar geant_cost_network.node[3].core_layer 	interests[3] 	165728
scalar geant_cost_network.node[3].core_layer 	data[3] 	142083
scalar geant_cost_network.node[3].content_store 	p_hit[3] 	0.14266750337903
scalar geant_cost_network.node[3].content_store 	hits[3] 	23644
scalar geant_cost_network.node[3].content_store 	misses[3] 	142084
scalar geant_cost_network.node[3].content_store 	decision_yes[3] 	1449
scalar geant_cost_network.node[3].content_store 	decision_no[3] 	140634
scalar geant_cost_network.node[3].content_store 	decision_ratio[3] 	0.010198264394755
scalar geant_cost_network.node[4].core_layer 	interests[4] 	202214
scalar geant_cost_network.node[4].core_layer 	data[4] 	193019
scalar geant_cost_network.node[4].content_store 	p_hit[4] 	0.045461738554205
scalar geant_cost_network.node[4].content_store 	hits[4] 	9193
scalar geant_cost_network.node[4].content_store 	misses[4] 	193021
scalar geant_cost_network.node[4].content_store 	decision_yes[4] 	1901
scalar geant_cost_network.node[4].content_store 	decision_no[4] 	191118
scalar geant_cost_network.node[4].content_store 	decision_ratio[4] 	0.0098487713644771
scalar geant_cost_network.node[5].core_layer 	interests[5] 	189478
scalar geant_cost_network.node[5].core_layer 	data[5] 	124503
scalar geant_cost_network.node[5].content_store 	p_hit[5] 	0.34259914079735
scalar geant_cost_network.node[5].content_store 	hits[5] 	64915
scalar geant_cost_network.node[5].content_store 	misses[5] 	124563
scalar geant_cost_network.node[5].content_store 	decision_yes[5] 	1234
scalar geant_cost_network.node[5].content_store 	decision_no[5] 	123269
scalar geant_cost_network.node[5].content_store 	decision_ratio[5] 	0.0099114077572428
scalar geant_cost_network.node[6].core_layer 	interests[6] 	70097
scalar geant_cost_network.node[6].core_layer 	data[6] 	62210
scalar geant_cost_network.node[6].content_store 	p_hit[6] 	0.11251551421601
scalar geant_cost_network.node[6].content_store 	hits[6] 	7887
scalar geant_cost_network.node[6].content_store 	misses[6] 	62210
scalar geant_cost_network.node[6].content_store 	decision_yes[6] 	637
scalar geant_cost_network.node[6].content_store 	decision_no[6] 	61573
scalar geant_cost_network.node[6].content_store 	decision_ratio[6] 	0.010239511332583
scalar geant_cost_network.node[7].core_layer 	interests[7] 	221700
scalar geant_cost_network.node[7].core_layer 	data[7] 	214594
scalar geant_cost_network.node[7].content_store 	p_hit[7] 	0.032043301759134
scalar geant_cost_network.node[7].content_store 	hits[7] 	7104
scalar geant_cost_network.node[7].content_store 	misses[7] 	214596
scalar geant_cost_network.node[7].content_store 	decision_yes[7] 	2091
scalar geant_cost_network.node[7].content_store 	decision_no[7] 	212503
scalar geant_cost_network.node[7].content_store 	decision_ratio[7] 	0.0097439816583875
scalar geant_cost_network.node[8].core_layer 	interests[8] 	223773
scalar geant_cost_network.node[8].core_layer 	data[8] 	214965
scalar geant_cost_network.node[8].content_store 	p_hit[8] 	0.039361317048974
scalar geant_cost_network.node[8].content_store 	hits[8] 	8808
scalar geant_cost_network.node[8].content_store 	misses[8] 	214965
scalar geant_cost_network.node[8].content_store 	decision_yes[8] 	2119
scalar geant_cost_network.node[8].content_store 	decision_no[8] 	212846
scalar geant_cost_network.node[8].content_store 	decision_ratio[8] 	0.0098574186495476
scalar geant_cost_network.node[9].core_layer 	interests[9] 	343061
scalar geant_cost_network.node[9].core_layer 	data[9] 	270526
scalar geant_cost_network.node[9].content_store 	p_hit[9] 	0.21097122669146
scalar geant_cost_network.node[9].content_store 	hits[9] 	72376
scalar geant_cost_network.node[9].content_store 	misses[9] 	270685
scalar geant_cost_network.node[9].content_store 	decision_yes[9] 	2731
scalar geant_cost_network.node[9].content_store 	decision_no[9] 	267795
scalar geant_cost_network.node[9].content_store 	decision_ratio[9] 	0.01009514797099
scalar geant_cost_network.node[10].core_layer 	interests[10] 	189353
scalar geant_cost_network.node[10].core_layer 	data[10] 	120343
scalar geant_cost_network.node[10].content_store 	p_hit[10] 	0.36408189994349
scalar geant_cost_network.node[10].content_store 	hits[10] 	68940
scalar geant_cost_network.node[10].content_store 	misses[10] 	120413
scalar geant_cost_network.node[10].content_store 	decision_yes[10] 	1218
scalar geant_cost_network.node[10].content_store 	decision_no[10] 	119125
scalar geant_cost_network.node[10].content_store 	decision_ratio[10] 	0.010121070606516
scalar geant_cost_network.node[11].core_layer 	interests[11] 	0
scalar geant_cost_network.node[11].core_layer 	data[11] 	0
scalar geant_cost_network.node[11].content_store 	p_hit[11] 	-nan
scalar geant_cost_network.node[11].content_store 	hits[11] 	0
scalar geant_cost_network.node[11].content_store 	misses[11] 	0
scalar geant_cost_network.node[11].content_store 	decision_yes[11] 	0
scalar geant_cost_network.node[11].content_store 	decision_no[11] 	0
scalar geant_cost_network.node[11].content_store 	decision_ratio[11] 	0
scalar geant_cost_network.node[12].core_layer 	interests[12] 	285165
scalar geant_cost_network.node[12].core_layer 	data[12] 	215845
scalar geant_cost_network.node[12].content_store 	p_hit[12] 	0.2422492241334
scalar geant_cost_network.node[12].content_store 	hits[12] 	69081
scalar geant_cost_network.node[12].content_store 	misses[12] 	216084
scalar geant_cost_network.node[12].content_store 	decision_yes[12] 	2218
scalar geant_cost_network.node[12].content_store 	decision_no[12] 	213627
scalar geant_cost_network.node[12].content_store 	decision_ratio[12] 	0.010275892422803
scalar geant_cost_network.node[13].core_layer 	interests[13] 	30444
scalar geant_cost_network.node[13].core_layer 	data[13] 	6593
scalar geant_cost_network.node[13].content_store 	p_hit[13] 	0.78343844435685
scalar geant_cost_network.node[13].content_store 	hits[13] 	23851
scalar geant_cost_network.node[13].content_store 	misses[13] 	6593
scalar geant_cost_network.node[13].content_store 	decision_yes[13] 	66
scalar geant_cost_network.node[13].content_store 	decision_no[13] 	6527
scalar geant_cost_network.node[13].content_store 	decision_ratio[13] 	0.010010617321401
scalar geant_cost_network.node[14].core_layer 	interests[14] 	64676
scalar geant_cost_network.node[14].core_layer 	data[14] 	44592
scalar geant_cost_network.node[14].content_store 	p_hit[14] 	0.31014595831529
scalar geant_cost_network.node[14].content_store 	hits[14] 	20059
scalar geant_cost_network.node[14].content_store 	misses[14] 	44617
scalar geant_cost_network.node[14].content_store 	decision_yes[14] 	407
scalar geant_cost_network.node[14].content_store 	decision_no[14] 	44185
scalar geant_cost_network.node[14].content_store 	decision_ratio[14] 	0.009127197703624
scalar geant_cost_network.node[15].core_layer 	interests[15] 	0
scalar geant_cost_network.node[15].core_layer 	data[15] 	0
scalar geant_cost_network.node[15].content_store 	p_hit[15] 	-nan
scalar geant_cost_network.node[15].content_store 	hits[15] 	0
scalar geant_cost_network.node[15].content_store 	misses[15] 	0
scalar geant_cost_network.node[15].content_store 	decision_yes[15] 	0
scalar geant_cost_network.node[15].content_store 	decision_no[15] 	0
scalar geant_cost_network.node[15].content_store 	decision_ratio[15] 	0
scalar geant_cost_network.node[16].core_layer 	interests[16] 	0
scalar geant_cost_network.node[16].core_layer 	data[16] 	0
scalar geant_cost_network.node[16].content_store 	p_hit[16] 	-nan
scalar geant_cost_network.node[16].content_store 	hits[16] 	0
scalar geant_cost_network.node[16].content_store 	misses[16] 	0
scalar geant_cost_network.node[16].content_store 	decision_yes[16] 	0
scalar geant_cost_network.node[16].content_store 	decision_no[16] 	0
scalar geant_cost_network.node[16].content_store 	decision_ratio[16] 	0
scalar geant_cost_network.node[17].core_layer 	interests[17] 	0
scalar geant_cost_network.node[17].core_layer 	data[17] 	0
scalar geant_cost_network.node[17].content_store 	p_hit[17] 	-nan
scalar geant_cost_network.node[17].content_store 	hits[17] 	0
scalar geant_cost_network.node[17].content_store 	misses[17] 	0
scalar geant_cost_network.node[17].content_store 	decision_yes[17] 	0
scalar geant_cost_network.node[17].content_store 	decision_no[17] 	0
scalar geant_cost_network.node[17].content_store 	decision_ratio[17] 	0
scalar geant_cost_network.node[18].core_layer 	interests[18] 	97419
scalar geant_cost_network.node[18].core_layer 	data[18] 	83513
scalar geant_cost_network.node[18].content_store 	p_hit[18] 	0.14274422853858
scalar geant_cost_network.node[18].content_store 	hits[18] 	13906
scalar geant_cost_network.node[18].content_store 	misses[18] 	83513
scalar geant_cost_network.node[18].content_store 	decision_yes[18] 	778
scalar geant_cost_network.node[18].content_store 	decision_no[18] 	82735
scalar geant_cost_network.node[18].content_store 	decision_ratio[18] 	0.0093159148875025
scalar geant_cost_network.node[19].core_layer 	interests[19] 	0
scalar geant_cost_network.node[19].core_layer 	data[19] 	0
scalar geant_cost_network.node[19].content_store 	p_hit[19] 	-nan
scalar geant_cost_network.node[19].content_store 	hits[19] 	0
scalar geant_cost_network.node[19].content_store 	misses[19] 	0
scalar geant_cost_network.node[19].content_store 	decision_yes[19] 	0
scalar geant_cost_network.node[19].content_store 	decision_no[19] 	0
scalar geant_cost_network.node[19].content_store 	decision_ratio[19] 	0
scalar geant_cost_network.node[20].core_layer 	interests[20] 	181449
scalar geant_cost_network.node[20].core_layer 	data[20] 	121222
scalar geant_cost_network.node[20].content_store 	p_hit[20] 	0.33166895381071
scalar geant_cost_network.node[20].content_store 	hits[20] 	60181
scalar geant_cost_network.node[20].content_store 	misses[20] 	121268
scalar geant_cost_network.node[20].content_store 	decision_yes[20] 	1209
scalar geant_cost_network.node[20].content_store 	decision_no[20] 	120013
scalar geant_cost_network.node[20].content_store 	decision_ratio[20] 	0.0099734371648711
scalar geant_cost_network.node[21].core_layer 	interests[21] 	152471
scalar geant_cost_network.node[21].core_layer 	data[21] 	145233
scalar geant_cost_network.node[21].content_store 	p_hit[21] 	0.04747132241541
scalar geant_cost_network.node[21].content_store 	hits[21] 	7238
scalar geant_cost_network.node[21].content_store 	misses[21] 	145233
scalar geant_cost_network.node[21].content_store 	decision_yes[21] 	1477
scalar geant_cost_network.node[21].content_store 	decision_no[21] 	143756
scalar geant_cost_network.node[21].content_store 	decision_ratio[21] 	0.010169864975591
scalar geant_cost_network.node[22].core_layer 	interests[22] 	148870
scalar geant_cost_network.node[22].core_layer 	repo_load[22] 	148870
scalar geant_cost_network.node[22].core_layer 	data[22] 	0
scalar geant_cost_network.node[22].content_store 	p_hit[22] 	0
scalar geant_cost_network.node[22].content_store 	hits[22] 	0
scalar geant_cost_network.node[22].content_store 	misses[22] 	148870
scalar geant_cost_network.node[22].content_store 	decision_yes[22] 	0
scalar geant_cost_network.node[22].content_store 	decision_no[22] 	148870
scalar geant_cost_network.node[22].content_store 	decision_ratio[22] 	0
scalar geant_cost_network.node[23].core_layer 	interests[23] 	149466
scalar geant_cost_network.node[23].core_layer 	repo_load[23] 	149466
scalar geant_cost_network.node[23].core_layer 	data[23] 	0
scalar geant_cost_network.node[23].content_store 	p_hit[23] 	0
scalar geant_cost_network.node[23].content_store 	hits[23] 	0
scalar geant_cost_network.node[23].content_store 	misses[23] 	149466
scalar geant_cost_network.node[23].content_store 	decision_yes[23] 	0
scalar geant_cost_network.node[23].content_store 	decision_no[23] 	149466
scalar geant_cost_network.node[23].content_store 	decision_ratio[23] 	0
scalar geant_cost_network.node[24].core_layer 	interests[24] 	145233
scalar geant_cost_network.node[24].core_layer 	repo_load[24] 	145233
scalar geant_cost_network.node[24].core_layer 	data[24] 	0
scalar geant_cost_network.node[24].content_store 	p_hit[24] 	0
scalar geant_cost_network.node[24].content_store 	hits[24] 	0
scalar geant_cost_network.node[24].content_store 	misses[24] 	145233
scalar geant_cost_network.node[24].content_store 	decision_yes[24] 	0
scalar geant_cost_network.node[24].content_store 	decision_no[24] 	145233
scalar geant_cost_network.node[24].content_store 	decision_ratio[24] 	0
scalar geant_cost_network.client[5] 	hdistance[5] 	2.4183534265718
scalar geant_cost_network.client[5] 	downloads[5] 	180326
scalar geant_cost_network.client[5] 	avg_time[5] 	0.007545878343
scalar geant_cost_network.client[5] 	interests_sent[5] 	180385
scalar geant_cost_network.client[9] 	hdistance[9] 	2.4897248830475
scalar geant_cost_network.client[9] 	downloads[9] 	179560
scalar geant_cost_network.client[9] 	avg_time[9] 	0.00497466989
scalar geant_cost_network.client[9] 	interests_sent[9] 	179622
scalar geant_cost_network.client[10] 	hdistance[10] 	3.1012685586979
scalar geant_cost_network.client[10] 	downloads[10] 	180441
scalar geant_cost_network.client[10] 	avg_time[10] 	0.006247570664
scalar geant_cost_network.client[10] 	interests_sent[10] 	180511
scalar geant_cost_network.client[12] 	hdistance[12] 	2.6131265577403
scalar geant_cost_network.client[12] 	downloads[12] 	180550
scalar geant_cost_network.client[12] 	avg_time[12] 	0.005891531149
scalar geant_cost_network.client[12] 	interests_sent[12] 	180636
scalar geant_cost_network.client[20] 	hdistance[20] 	2.7132397837406
scalar geant_cost_network.client[20] 	downloads[20] 	180154
scalar geant_cost_network.client[20] 	avg_time[20] 	0.005441508219
scalar geant_cost_network.client[20] 	interests_sent[20] 	180200
