version 2
run General-2-20140502-15:31:30-18000
attr D fix0.1
attr F nrr
attr R lru
attr a 1
attr configname General
attr csize 1e3
attr ctlg 1e5
attr datetime 20140502-15:31:30
attr experiment General
attr inifile omnetpp.ini
attr iterationvars "$net=four_caches_scenario_3_links, $rep=1, $priceratiovalue=10, $weights=0.333_0.333_0.334, $a=1, $ctlg=1e5, $F=nrr, $ttl=1000, $D=fix0.1, $xi=1, $R=lru, $csize=1e3"
attr iterationvars2 "$net=four_caches_scenario_3_links, $rep=1, $priceratiovalue=10, $weights=0.333_0.333_0.334, $a=1, $ctlg=1e5, $F=nrr, $ttl=1000, $D=fix0.1, $xi=1, $R=lru, $csize=1e3, $repetition=0"
attr measurement "$net=four_caches_scenario_3_links, $rep=1, $priceratiovalue=10, $weights=0.333_0.333_0.334, $a=1, $ctlg=1e5, $F=nrr, $ttl=1000, $D=fix0.1, $xi=1, $R=lru, $csize=1e3"
attr net four_caches_scenario_3_links
attr network networks.${net=four_caches_scenario_3_links}_network
attr priceratiovalue 10
attr processid 18000
attr rep 1
attr repetition 0
attr replication #0
attr resultdir results
attr runnumber 2
attr seedset 1
attr ttl 1000
attr weights 0.333_0.333_0.334
attr xi 1

scalar . 	a 	1
scalar . 	csize 	1e3
scalar . 	ctlg 	1e5
scalar . 	priceratiovalue 	10
scalar . 	rep 	1
scalar . 	ttl 	1000
scalar . 	xi 	1
scalar four_caches_scenario_3_links_network.content_distribution 	repo-0 	4
scalar four_caches_scenario_3_links_network.content_distribution 	repo-1 	5
scalar four_caches_scenario_3_links_network.content_distribution 	repo-2 	6
scalar four_caches_scenario_3_links_network.content_distribution 	client-0 	0
scalar four_caches_scenario_3_links_network.content_distribution 	repo-0_card 	33352
scalar four_caches_scenario_3_links_network.content_distribution 	repo-1_card 	33263
scalar four_caches_scenario_3_links_network.content_distribution 	repo-2_card 	33385
scalar four_caches_scenario_3_links_network.statistics 	p_hit 	0.26167471819646
scalar four_caches_scenario_3_links_network.statistics 	interests 	52164
scalar four_caches_scenario_3_links_network.statistics 	data 	26504.142857143
scalar four_caches_scenario_3_links_network.statistics 	hdistance 	1.500943664089
scalar four_caches_scenario_3_links_network.statistics 	avg_time 	0
scalar four_caches_scenario_3_links_network.statistics 	downloads 	179619
scalar four_caches_scenario_3_links_network.statistics 	total_cost 	309844
scalar four_caches_scenario_3_links_network.statistics 	total_replicas 	100000
scalar four_caches_scenario_3_links_network.statistics 	interests_sent 	179619
scalar four_caches_scenario_3_links_network.node[0].core_layer 	interests[0] 	179619
scalar four_caches_scenario_3_links_network.node[0].core_layer 	data[0] 	101460
scalar four_caches_scenario_3_links_network.node[0].core_layer 	repo_int[0] 	84069
scalar four_caches_scenario_3_links_network.node[0].content_store 	p_hit[0] 	0.43513770814892
scalar four_caches_scenario_3_links_network.node[0].content_store 	hits[0] 	78159
scalar four_caches_scenario_3_links_network.node[0].content_store 	misses[0] 	101460
scalar four_caches_scenario_3_links_network.node[0].content_store 	decision_yes[0] 	10329
scalar four_caches_scenario_3_links_network.node[0].content_store 	decision_no[0] 	91131
scalar four_caches_scenario_3_links_network.node[1].core_layer 	interests[1] 	33837
scalar four_caches_scenario_3_links_network.node[1].core_layer 	data[1] 	27935
scalar four_caches_scenario_3_links_network.node[1].content_store 	p_hit[1] 	0.1744244466117
scalar four_caches_scenario_3_links_network.node[1].content_store 	hits[1] 	5902
scalar four_caches_scenario_3_links_network.node[1].content_store 	misses[1] 	27935
scalar four_caches_scenario_3_links_network.node[1].content_store 	decision_yes[1] 	2869
scalar four_caches_scenario_3_links_network.node[1].content_store 	decision_no[1] 	25066
scalar four_caches_scenario_3_links_network.node[2].core_layer 	interests[2] 	33664
scalar four_caches_scenario_3_links_network.node[2].core_layer 	data[2] 	27944
scalar four_caches_scenario_3_links_network.node[2].content_store 	p_hit[2] 	0.1699144486692
scalar four_caches_scenario_3_links_network.node[2].content_store 	hits[2] 	5720
scalar four_caches_scenario_3_links_network.node[2].content_store 	misses[2] 	27944
scalar four_caches_scenario_3_links_network.node[2].content_store 	decision_yes[2] 	2764
scalar four_caches_scenario_3_links_network.node[2].content_store 	decision_no[2] 	25180
scalar four_caches_scenario_3_links_network.node[3].core_layer 	interests[3] 	33959
scalar four_caches_scenario_3_links_network.node[3].core_layer 	data[3] 	28190
scalar four_caches_scenario_3_links_network.node[3].content_store 	p_hit[3] 	0.16988132748314
scalar four_caches_scenario_3_links_network.node[3].content_store 	hits[3] 	5769
scalar four_caches_scenario_3_links_network.node[3].content_store 	misses[3] 	28190
scalar four_caches_scenario_3_links_network.node[3].content_store 	decision_yes[3] 	2859
scalar four_caches_scenario_3_links_network.node[3].content_store 	decision_no[3] 	25331
scalar four_caches_scenario_3_links_network.node[4].core_layer 	interests[4] 	27935
scalar four_caches_scenario_3_links_network.node[4].core_layer 	repo_load[4] 	27935
scalar four_caches_scenario_3_links_network.node[4].core_layer 	data[4] 	0
scalar four_caches_scenario_3_links_network.node[4].content_store 	p_hit[4] 	0
scalar four_caches_scenario_3_links_network.node[4].content_store 	hits[4] 	0
scalar four_caches_scenario_3_links_network.node[4].content_store 	misses[4] 	27935
scalar four_caches_scenario_3_links_network.node[4].content_store 	decision_yes[4] 	0
scalar four_caches_scenario_3_links_network.node[4].content_store 	decision_no[4] 	27935
scalar four_caches_scenario_3_links_network.node[5].core_layer 	interests[5] 	27944
scalar four_caches_scenario_3_links_network.node[5].core_layer 	repo_load[5] 	27944
scalar four_caches_scenario_3_links_network.node[5].core_layer 	data[5] 	0
scalar four_caches_scenario_3_links_network.node[5].content_store 	p_hit[5] 	0
scalar four_caches_scenario_3_links_network.node[5].content_store 	hits[5] 	0
scalar four_caches_scenario_3_links_network.node[5].content_store 	misses[5] 	27944
scalar four_caches_scenario_3_links_network.node[5].content_store 	decision_yes[5] 	0
scalar four_caches_scenario_3_links_network.node[5].content_store 	decision_no[5] 	27944
scalar four_caches_scenario_3_links_network.node[6].core_layer 	interests[6] 	28190
scalar four_caches_scenario_3_links_network.node[6].core_layer 	repo_load[6] 	28190
scalar four_caches_scenario_3_links_network.node[6].core_layer 	data[6] 	0
scalar four_caches_scenario_3_links_network.node[6].content_store 	p_hit[6] 	0
scalar four_caches_scenario_3_links_network.node[6].content_store 	hits[6] 	0
scalar four_caches_scenario_3_links_network.node[6].content_store 	misses[6] 	28190
scalar four_caches_scenario_3_links_network.node[6].content_store 	decision_yes[6] 	0
scalar four_caches_scenario_3_links_network.node[6].content_store 	decision_no[6] 	28190
scalar four_caches_scenario_3_links_network.client[0] 	hdistance[0] 	1.500943664089
scalar four_caches_scenario_3_links_network.client[0] 	downloads[0] 	179619
scalar four_caches_scenario_3_links_network.client[0] 	avg_time[0] 	0
scalar four_caches_scenario_3_links_network.client[0] 	interests_sent[0] 	179619
