version 2
run General-1808-20140502-04:34:12-10740
attr D costprob0.001
attr F nrr
attr R lru
attr a 0.8
attr configname General
attr csize 1e3
attr ctlg 1e5
attr datetime 20140502-04:34:12
attr experiment General
attr inifile omnetpp.ini
attr iterationvars "$net=three_caches_scenario_3_links, $rep=4, $priceratiovalue=1, $weights=0.7_0.15_0.15, $a=0.8, $ctlg=1e5, $F=nrr, $ttl=1000, $D=costprob0.001, $xi=1, $R=lru, $csize=1e3"
attr iterationvars2 "$net=three_caches_scenario_3_links, $rep=4, $priceratiovalue=1, $weights=0.7_0.15_0.15, $a=0.8, $ctlg=1e5, $F=nrr, $ttl=1000, $D=costprob0.001, $xi=1, $R=lru, $csize=1e3, $repetition=0"
attr measurement "$net=three_caches_scenario_3_links, $rep=4, $priceratiovalue=1, $weights=0.7_0.15_0.15, $a=0.8, $ctlg=1e5, $F=nrr, $ttl=1000, $D=costprob0.001, $xi=1, $R=lru, $csize=1e3"
attr net three_caches_scenario_3_links
attr network networks.${net=three_caches_scenario_3_links}_network
attr priceratiovalue 1
attr processid 10740
attr rep 4
attr repetition 0
attr replication #0
attr resultdir results
attr runnumber 1808
attr seedset 4
attr ttl 1000
attr weights 0.7_0.15_0.15
attr xi 1

scalar . 	a 	0.8
scalar . 	csize 	1e3
scalar . 	ctlg 	1e5
scalar . 	priceratiovalue 	1
scalar . 	rep 	4
scalar . 	ttl 	1000
scalar . 	xi 	1
scalar three_caches_scenario_3_links_network.content_distribution 	repo-0 	4
scalar three_caches_scenario_3_links_network.content_distribution 	repo-1 	5
scalar three_caches_scenario_3_links_network.content_distribution 	repo-2 	6
scalar three_caches_scenario_3_links_network.content_distribution 	client-0 	0
scalar three_caches_scenario_3_links_network.content_distribution 	repo-0_card 	70058
scalar three_caches_scenario_3_links_network.content_distribution 	repo-1_card 	14957
scalar three_caches_scenario_3_links_network.content_distribution 	repo-2_card 	14985
scalar three_caches_scenario_3_links_network.statistics 	p_hit 	0.028463891757303
scalar three_caches_scenario_3_links_network.statistics 	interests 	74013.571428571
scalar three_caches_scenario_3_links_network.statistics 	data 	48315.428571429
scalar three_caches_scenario_3_links_network.statistics 	hdistance 	2.0739575400113
scalar three_caches_scenario_3_links_network.statistics 	avg_time 	0
scalar three_caches_scenario_3_links_network.statistics 	downloads 	179887
scalar three_caches_scenario_3_links_network.statistics 	total_cost 	34870
scalar three_caches_scenario_3_links_network.statistics 	total_replicas 	100000
scalar three_caches_scenario_3_links_network.statistics 	interests_sent 	179887
scalar three_caches_scenario_3_links_network.node[0].core_layer 	interests[0] 	179887
scalar three_caches_scenario_3_links_network.node[0].core_layer 	data[0] 	173068
scalar three_caches_scenario_3_links_network.node[0].core_layer 	repo_int[0] 	165140
scalar three_caches_scenario_3_links_network.node[0].content_store 	p_hit[0] 	0.037907130587536
scalar three_caches_scenario_3_links_network.node[0].content_store 	hits[0] 	6819
scalar three_caches_scenario_3_links_network.node[0].content_store 	misses[0] 	173068
scalar three_caches_scenario_3_links_network.node[0].content_store 	decision_yes[0] 	133
scalar three_caches_scenario_3_links_network.node[0].content_store 	decision_no[0] 	172935
scalar three_caches_scenario_3_links_network.node[1].core_layer 	interests[1] 	130270
scalar three_caches_scenario_3_links_network.node[1].core_layer 	data[1] 	130270
scalar three_caches_scenario_3_links_network.node[1].content_store 	p_hit[1] 	0
scalar three_caches_scenario_3_links_network.node[1].content_store 	hits[1] 	0
scalar three_caches_scenario_3_links_network.node[1].content_store 	misses[1] 	130270
scalar three_caches_scenario_3_links_network.node[1].content_store 	decision_yes[1] 	0
scalar three_caches_scenario_3_links_network.node[1].content_store 	decision_no[1] 	130270
scalar three_caches_scenario_3_links_network.node[2].core_layer 	interests[2] 	20753
scalar three_caches_scenario_3_links_network.node[2].core_layer 	data[2] 	17486
scalar three_caches_scenario_3_links_network.node[2].content_store 	p_hit[2] 	0.15742302317737
scalar three_caches_scenario_3_links_network.node[2].content_store 	hits[2] 	3267
scalar three_caches_scenario_3_links_network.node[2].content_store 	misses[2] 	17486
scalar three_caches_scenario_3_links_network.node[2].content_store 	decision_yes[2] 	57
scalar three_caches_scenario_3_links_network.node[2].content_store 	decision_no[2] 	17429
scalar three_caches_scenario_3_links_network.node[3].core_layer 	interests[3] 	22045
scalar three_caches_scenario_3_links_network.node[3].core_layer 	data[3] 	17384
scalar three_caches_scenario_3_links_network.node[3].content_store 	p_hit[3] 	0.21143116352914
scalar three_caches_scenario_3_links_network.node[3].content_store 	hits[3] 	4661
scalar three_caches_scenario_3_links_network.node[3].content_store 	misses[3] 	17384
scalar three_caches_scenario_3_links_network.node[3].content_store 	decision_yes[3] 	63
scalar three_caches_scenario_3_links_network.node[3].content_store 	decision_no[3] 	17321
scalar three_caches_scenario_3_links_network.node[4].core_layer 	interests[4] 	130270
scalar three_caches_scenario_3_links_network.node[4].core_layer 	repo_load[4] 	130270
scalar three_caches_scenario_3_links_network.node[4].core_layer 	data[4] 	0
scalar three_caches_scenario_3_links_network.node[4].content_store 	p_hit[4] 	0
scalar three_caches_scenario_3_links_network.node[4].content_store 	hits[4] 	0
scalar three_caches_scenario_3_links_network.node[4].content_store 	misses[4] 	130270
scalar three_caches_scenario_3_links_network.node[4].content_store 	decision_yes[4] 	0
scalar three_caches_scenario_3_links_network.node[4].content_store 	decision_no[4] 	130270
scalar three_caches_scenario_3_links_network.node[5].core_layer 	interests[5] 	17486
scalar three_caches_scenario_3_links_network.node[5].core_layer 	repo_load[5] 	17486
scalar three_caches_scenario_3_links_network.node[5].core_layer 	data[5] 	0
scalar three_caches_scenario_3_links_network.node[5].content_store 	p_hit[5] 	0
scalar three_caches_scenario_3_links_network.node[5].content_store 	hits[5] 	0
scalar three_caches_scenario_3_links_network.node[5].content_store 	misses[5] 	17486
scalar three_caches_scenario_3_links_network.node[5].content_store 	decision_yes[5] 	0
scalar three_caches_scenario_3_links_network.node[5].content_store 	decision_no[5] 	17486
scalar three_caches_scenario_3_links_network.node[6].core_layer 	interests[6] 	17384
scalar three_caches_scenario_3_links_network.node[6].core_layer 	repo_load[6] 	17384
scalar three_caches_scenario_3_links_network.node[6].core_layer 	data[6] 	0
scalar three_caches_scenario_3_links_network.node[6].content_store 	p_hit[6] 	0
scalar three_caches_scenario_3_links_network.node[6].content_store 	hits[6] 	0
scalar three_caches_scenario_3_links_network.node[6].content_store 	misses[6] 	17384
scalar three_caches_scenario_3_links_network.node[6].content_store 	decision_yes[6] 	0
scalar three_caches_scenario_3_links_network.node[6].content_store 	decision_no[6] 	17384
scalar three_caches_scenario_3_links_network.client[0] 	hdistance[0] 	2.0739575400113
scalar three_caches_scenario_3_links_network.client[0] 	downloads[0] 	179887
scalar three_caches_scenario_3_links_network.client[0] 	avg_time[0] 	0
scalar three_caches_scenario_3_links_network.client[0] 	interests_sent[0] 	179887
