version 2
run General-1232-20140502-03:27:22-10146
attr D costprob0.001
attr F nrr
attr R lru
attr a 0.8
attr configname General
attr csize 1e3
attr ctlg 1e5
attr datetime 20140502-03:27:22
attr experiment General
attr inifile omnetpp.ini
attr iterationvars "$net=three_caches_scenario_3_links, $rep=3, $priceratiovalue=1, $weights=0.7_0.15_0.15, $a=0.8, $ctlg=1e5, $F=nrr, $ttl=1000, $D=costprob0.001, $xi=1, $R=lru, $csize=1e3"
attr iterationvars2 "$net=three_caches_scenario_3_links, $rep=3, $priceratiovalue=1, $weights=0.7_0.15_0.15, $a=0.8, $ctlg=1e5, $F=nrr, $ttl=1000, $D=costprob0.001, $xi=1, $R=lru, $csize=1e3, $repetition=0"
attr measurement "$net=three_caches_scenario_3_links, $rep=3, $priceratiovalue=1, $weights=0.7_0.15_0.15, $a=0.8, $ctlg=1e5, $F=nrr, $ttl=1000, $D=costprob0.001, $xi=1, $R=lru, $csize=1e3"
attr net three_caches_scenario_3_links
attr network networks.${net=three_caches_scenario_3_links}_network
attr priceratiovalue 1
attr processid 10146
attr rep 3
attr repetition 0
attr replication #0
attr resultdir results
attr runnumber 1232
attr seedset 3
attr ttl 1000
attr weights 0.7_0.15_0.15
attr xi 1

scalar . 	a 	0.8
scalar . 	csize 	1e3
scalar . 	ctlg 	1e5
scalar . 	priceratiovalue 	1
scalar . 	rep 	3
scalar . 	ttl 	1000
scalar . 	xi 	1
scalar three_caches_scenario_3_links_network.content_distribution 	repo-0 	4
scalar three_caches_scenario_3_links_network.content_distribution 	repo-1 	5
scalar three_caches_scenario_3_links_network.content_distribution 	repo-2 	6
scalar three_caches_scenario_3_links_network.content_distribution 	client-0 	0
scalar three_caches_scenario_3_links_network.content_distribution 	repo-0_card 	69828
scalar three_caches_scenario_3_links_network.content_distribution 	repo-1_card 	15121
scalar three_caches_scenario_3_links_network.content_distribution 	repo-2_card 	15051
scalar three_caches_scenario_3_links_network.statistics 	p_hit 	0.033958127638402
scalar three_caches_scenario_3_links_network.statistics 	interests 	73502.285714286
scalar three_caches_scenario_3_links_network.statistics 	data 	47801.857142857
scalar three_caches_scenario_3_links_network.statistics 	hdistance 	2.0534121165294
scalar three_caches_scenario_3_links_network.statistics 	avg_time 	0
scalar three_caches_scenario_3_links_network.statistics 	downloads 	179903
scalar three_caches_scenario_3_links_network.statistics 	total_cost 	34802
scalar three_caches_scenario_3_links_network.statistics 	total_replicas 	100000
scalar three_caches_scenario_3_links_network.statistics 	interests_sent 	179903
scalar three_caches_scenario_3_links_network.node[0].core_layer 	interests[0] 	179903
scalar three_caches_scenario_3_links_network.node[0].core_layer 	data[0] 	172182
scalar three_caches_scenario_3_links_network.node[0].core_layer 	repo_int[0] 	162431
scalar three_caches_scenario_3_links_network.node[0].content_store 	p_hit[0] 	0.042917572247267
scalar three_caches_scenario_3_links_network.node[0].content_store 	hits[0] 	7721
scalar three_caches_scenario_3_links_network.node[0].content_store 	misses[0] 	172182
scalar three_caches_scenario_3_links_network.node[0].content_store 	decision_yes[0] 	117
scalar three_caches_scenario_3_links_network.node[0].content_store 	decision_no[0] 	172065
scalar three_caches_scenario_3_links_network.node[1].core_layer 	interests[1] 	127629
scalar three_caches_scenario_3_links_network.node[1].core_layer 	data[1] 	127629
scalar three_caches_scenario_3_links_network.node[1].content_store 	p_hit[1] 	0
scalar three_caches_scenario_3_links_network.node[1].content_store 	hits[1] 	0
scalar three_caches_scenario_3_links_network.node[1].content_store 	misses[1] 	127629
scalar three_caches_scenario_3_links_network.node[1].content_store 	decision_yes[1] 	0
scalar three_caches_scenario_3_links_network.node[1].content_store 	decision_no[1] 	127629
scalar three_caches_scenario_3_links_network.node[2].core_layer 	interests[2] 	22900
scalar three_caches_scenario_3_links_network.node[2].core_layer 	data[2] 	17591
scalar three_caches_scenario_3_links_network.node[2].content_store 	p_hit[2] 	0.23183406113537
scalar three_caches_scenario_3_links_network.node[2].content_store 	hits[2] 	5309
scalar three_caches_scenario_3_links_network.node[2].content_store 	misses[2] 	17591
scalar three_caches_scenario_3_links_network.node[2].content_store 	decision_yes[2] 	69
scalar three_caches_scenario_3_links_network.node[2].content_store 	decision_no[2] 	17522
scalar three_caches_scenario_3_links_network.node[3].core_layer 	interests[3] 	21653
scalar three_caches_scenario_3_links_network.node[3].core_layer 	data[3] 	17211
scalar three_caches_scenario_3_links_network.node[3].content_store 	p_hit[3] 	0.20514478363275
scalar three_caches_scenario_3_links_network.node[3].content_store 	hits[3] 	4442
scalar three_caches_scenario_3_links_network.node[3].content_store 	misses[3] 	17211
scalar three_caches_scenario_3_links_network.node[3].content_store 	decision_yes[3] 	61
scalar three_caches_scenario_3_links_network.node[3].content_store 	decision_no[3] 	17150
scalar three_caches_scenario_3_links_network.node[4].core_layer 	interests[4] 	127629
scalar three_caches_scenario_3_links_network.node[4].core_layer 	repo_load[4] 	127629
scalar three_caches_scenario_3_links_network.node[4].core_layer 	data[4] 	0
scalar three_caches_scenario_3_links_network.node[4].content_store 	p_hit[4] 	0
scalar three_caches_scenario_3_links_network.node[4].content_store 	hits[4] 	0
scalar three_caches_scenario_3_links_network.node[4].content_store 	misses[4] 	127629
scalar three_caches_scenario_3_links_network.node[4].content_store 	decision_yes[4] 	0
scalar three_caches_scenario_3_links_network.node[4].content_store 	decision_no[4] 	127629
scalar three_caches_scenario_3_links_network.node[5].core_layer 	interests[5] 	17591
scalar three_caches_scenario_3_links_network.node[5].core_layer 	repo_load[5] 	17591
scalar three_caches_scenario_3_links_network.node[5].core_layer 	data[5] 	0
scalar three_caches_scenario_3_links_network.node[5].content_store 	p_hit[5] 	0
scalar three_caches_scenario_3_links_network.node[5].content_store 	hits[5] 	0
scalar three_caches_scenario_3_links_network.node[5].content_store 	misses[5] 	17591
scalar three_caches_scenario_3_links_network.node[5].content_store 	decision_yes[5] 	0
scalar three_caches_scenario_3_links_network.node[5].content_store 	decision_no[5] 	17591
scalar three_caches_scenario_3_links_network.node[6].core_layer 	interests[6] 	17211
scalar three_caches_scenario_3_links_network.node[6].core_layer 	repo_load[6] 	17211
scalar three_caches_scenario_3_links_network.node[6].core_layer 	data[6] 	0
scalar three_caches_scenario_3_links_network.node[6].content_store 	p_hit[6] 	0
scalar three_caches_scenario_3_links_network.node[6].content_store 	hits[6] 	0
scalar three_caches_scenario_3_links_network.node[6].content_store 	misses[6] 	17211
scalar three_caches_scenario_3_links_network.node[6].content_store 	decision_yes[6] 	0
scalar three_caches_scenario_3_links_network.node[6].content_store 	decision_no[6] 	17211
scalar three_caches_scenario_3_links_network.client[0] 	hdistance[0] 	2.0534121165294
scalar three_caches_scenario_3_links_network.client[0] 	downloads[0] 	179903
scalar three_caches_scenario_3_links_network.client[0] 	avg_time[0] 	0
scalar three_caches_scenario_3_links_network.client[0] 	interests_sent[0] 	179903
