version 2
run General-2135-20140502-05:10:54-11074
attr D fix0.005
attr F nrr
attr R lru
attr a 0.8
attr configname General
attr csize 1e3
attr ctlg 1e5
attr datetime 20140502-05:10:54
attr experiment General
attr inifile omnetpp.ini
attr iterationvars "$net=three_caches_scenario_3_links, $rep=4, $priceratiovalue=5, $weights=0_0.5_0.5, $a=0.8, $ctlg=1e5, $F=nrr, $ttl=1000, $D=fix0.005, $xi=1, $R=lru, $csize=1e3"
attr iterationvars2 "$net=three_caches_scenario_3_links, $rep=4, $priceratiovalue=5, $weights=0_0.5_0.5, $a=0.8, $ctlg=1e5, $F=nrr, $ttl=1000, $D=fix0.005, $xi=1, $R=lru, $csize=1e3, $repetition=0"
attr measurement "$net=three_caches_scenario_3_links, $rep=4, $priceratiovalue=5, $weights=0_0.5_0.5, $a=0.8, $ctlg=1e5, $F=nrr, $ttl=1000, $D=fix0.005, $xi=1, $R=lru, $csize=1e3"
attr net three_caches_scenario_3_links
attr network networks.${net=three_caches_scenario_3_links}_network
attr priceratiovalue 5
attr processid 11074
attr rep 4
attr repetition 0
attr replication #0
attr resultdir results
attr runnumber 2135
attr seedset 4
attr ttl 1000
attr weights 0_0.5_0.5
attr xi 1

scalar . 	a 	0.8
scalar . 	csize 	1e3
scalar . 	ctlg 	1e5
scalar . 	priceratiovalue 	5
scalar . 	rep 	4
scalar . 	ttl 	1000
scalar . 	xi 	1
scalar three_caches_scenario_3_links_network.content_distribution 	repo-0 	4
scalar three_caches_scenario_3_links_network.content_distribution 	repo-1 	5
scalar three_caches_scenario_3_links_network.content_distribution 	repo-2 	6
scalar three_caches_scenario_3_links_network.content_distribution 	client-0 	0
scalar three_caches_scenario_3_links_network.content_distribution 	repo-0_card 	0
scalar three_caches_scenario_3_links_network.content_distribution 	repo-1_card 	50243
scalar three_caches_scenario_3_links_network.content_distribution 	repo-2_card 	49757
scalar three_caches_scenario_3_links_network.statistics 	p_hit 	0.0996719909972
scalar three_caches_scenario_3_links_network.statistics 	interests 	65503.428571429
scalar three_caches_scenario_3_links_network.statistics 	data 	39797.142857143
scalar three_caches_scenario_3_links_network.statistics 	hdistance 	2.2941692971147
scalar three_caches_scenario_3_links_network.statistics 	avg_time 	0
scalar three_caches_scenario_3_links_network.statistics 	downloads 	179944
scalar three_caches_scenario_3_links_network.statistics 	total_cost 	399350
scalar three_caches_scenario_3_links_network.statistics 	total_replicas 	100000
scalar three_caches_scenario_3_links_network.statistics 	interests_sent 	179944
scalar three_caches_scenario_3_links_network.node[0].core_layer 	interests[0] 	179944
scalar three_caches_scenario_3_links_network.node[0].core_layer 	data[0] 	144338
scalar three_caches_scenario_3_links_network.node[0].core_layer 	repo_int[0] 	134242
scalar three_caches_scenario_3_links_network.node[0].content_store 	p_hit[0] 	0.1978726714978
scalar three_caches_scenario_3_links_network.node[0].content_store 	hits[0] 	35606
scalar three_caches_scenario_3_links_network.node[0].content_store 	misses[0] 	144338
scalar three_caches_scenario_3_links_network.node[0].content_store 	decision_yes[0] 	751
scalar three_caches_scenario_3_links_network.node[0].content_store 	decision_no[0] 	143587
scalar three_caches_scenario_3_links_network.node[1].core_layer 	interests[1] 	0
scalar three_caches_scenario_3_links_network.node[1].core_layer 	data[1] 	0
scalar three_caches_scenario_3_links_network.node[1].content_store 	p_hit[1] 	-nan
scalar three_caches_scenario_3_links_network.node[1].content_store 	hits[1] 	0
scalar three_caches_scenario_3_links_network.node[1].content_store 	misses[1] 	0
scalar three_caches_scenario_3_links_network.node[1].content_store 	decision_yes[1] 	0
scalar three_caches_scenario_3_links_network.node[1].content_store 	decision_no[1] 	0
scalar three_caches_scenario_3_links_network.node[2].core_layer 	interests[2] 	72753
scalar three_caches_scenario_3_links_network.node[2].core_layer 	data[2] 	67965
scalar three_caches_scenario_3_links_network.node[2].content_store 	p_hit[2] 	0.065811719104367
scalar three_caches_scenario_3_links_network.node[2].content_store 	hits[2] 	4788
scalar three_caches_scenario_3_links_network.node[2].content_store 	misses[2] 	67965
scalar three_caches_scenario_3_links_network.node[2].content_store 	decision_yes[2] 	386
scalar three_caches_scenario_3_links_network.node[2].content_store 	decision_no[2] 	67579
scalar three_caches_scenario_3_links_network.node[3].core_layer 	interests[3] 	71585
scalar three_caches_scenario_3_links_network.node[3].core_layer 	data[3] 	66277
scalar three_caches_scenario_3_links_network.node[3].content_store 	p_hit[3] 	0.074149612348956
scalar three_caches_scenario_3_links_network.node[3].content_store 	hits[3] 	5308
scalar three_caches_scenario_3_links_network.node[3].content_store 	misses[3] 	66277
scalar three_caches_scenario_3_links_network.node[3].content_store 	decision_yes[3] 	340
scalar three_caches_scenario_3_links_network.node[3].content_store 	decision_no[3] 	65937
scalar three_caches_scenario_3_links_network.node[4].core_layer 	interests[4] 	0
scalar three_caches_scenario_3_links_network.node[4].core_layer 	data[4] 	0
scalar three_caches_scenario_3_links_network.node[4].content_store 	p_hit[4] 	-nan
scalar three_caches_scenario_3_links_network.node[4].content_store 	hits[4] 	0
scalar three_caches_scenario_3_links_network.node[4].content_store 	misses[4] 	0
scalar three_caches_scenario_3_links_network.node[4].content_store 	decision_yes[4] 	0
scalar three_caches_scenario_3_links_network.node[4].content_store 	decision_no[4] 	0
scalar three_caches_scenario_3_links_network.node[5].core_layer 	interests[5] 	67965
scalar three_caches_scenario_3_links_network.node[5].core_layer 	repo_load[5] 	67965
scalar three_caches_scenario_3_links_network.node[5].core_layer 	data[5] 	0
scalar three_caches_scenario_3_links_network.node[5].content_store 	p_hit[5] 	0
scalar three_caches_scenario_3_links_network.node[5].content_store 	hits[5] 	0
scalar three_caches_scenario_3_links_network.node[5].content_store 	misses[5] 	67965
scalar three_caches_scenario_3_links_network.node[5].content_store 	decision_yes[5] 	0
scalar three_caches_scenario_3_links_network.node[5].content_store 	decision_no[5] 	67965
scalar three_caches_scenario_3_links_network.node[6].core_layer 	interests[6] 	66277
scalar three_caches_scenario_3_links_network.node[6].core_layer 	repo_load[6] 	66277
scalar three_caches_scenario_3_links_network.node[6].core_layer 	data[6] 	0
scalar three_caches_scenario_3_links_network.node[6].content_store 	p_hit[6] 	0
scalar three_caches_scenario_3_links_network.node[6].content_store 	hits[6] 	0
scalar three_caches_scenario_3_links_network.node[6].content_store 	misses[6] 	66277
scalar three_caches_scenario_3_links_network.node[6].content_store 	decision_yes[6] 	0
scalar three_caches_scenario_3_links_network.node[6].content_store 	decision_no[6] 	66277
scalar three_caches_scenario_3_links_network.client[0] 	hdistance[0] 	2.2941692971147
scalar three_caches_scenario_3_links_network.client[0] 	downloads[0] 	179944
scalar three_caches_scenario_3_links_network.client[0] 	avg_time[0] 	0
scalar three_caches_scenario_3_links_network.client[0] 	interests_sent[0] 	179944
