version 2
run General-69-20140423-18:33:27-25824
attr D costprob0.1
attr F nrr
attr R lru
attr a 1.2
attr configname General
attr csize 2
attr ctlg 10^3
attr datetime 20140423-18:33:27
attr experiment General
attr inifile omnetpp.ini
attr iterationvars "$net=simple_scenario, $rep=1, $priceratiovalue=2, $a=1.2, $ctlg=10^3, $F=nrr, $ttl=1000, $D=costprob0.1, $R=lru, $csize=2"
attr iterationvars2 "$net=simple_scenario, $rep=1, $priceratiovalue=2, $a=1.2, $ctlg=10^3, $F=nrr, $ttl=1000, $D=costprob0.1, $R=lru, $csize=2, $repetition=0"
attr measurement "$net=simple_scenario, $rep=1, $priceratiovalue=2, $a=1.2, $ctlg=10^3, $F=nrr, $ttl=1000, $D=costprob0.1, $R=lru, $csize=2"
attr net simple_scenario
attr network networks.${net=simple_scenario}_network
attr priceratiovalue 2
attr processid 25824
attr rep 1
attr repetition 0
attr replication #0
attr resultdir results
attr runnumber 69
attr seedset 1
attr ttl 1000

scalar . 	a 	1.2
scalar . 	csize 	2
scalar . 	priceratiovalue 	2
scalar . 	rep 	1
scalar . 	ttl 	1000
scalar simple_scenario_network.content_distribution 	repo-0 	3
scalar simple_scenario_network.content_distribution 	repo-1 	4
scalar simple_scenario_network.content_distribution 	client-0 	0
scalar simple_scenario_network.content_distribution 	repo-0_card 	522
scalar simple_scenario_network.content_distribution 	repo-1_card 	478
scalar simple_scenario_network.statistics 	p_hit 	0.13597502844666
scalar simple_scenario_network.statistics 	interests 	91047.6
scalar simple_scenario_network.statistics 	data 	54943.4
scalar simple_scenario_network.statistics 	hdistance 	2.1788988538729
scalar simple_scenario_network.statistics 	avg_time 	0.001985150165
scalar simple_scenario_network.statistics 	downloads 	180521
scalar simple_scenario_network.statistics 	total_cost 	61805
scalar simple_scenario_network.node[0].core_layer 	interests[0] 	180521
scalar simple_scenario_network.node[0].core_layer 	data[0] 	156097
scalar simple_scenario_network.node[0].core_layer 	repo_int[0] 	118620
scalar simple_scenario_network.node[0].content_store 	p_hit[0] 	0.13529727843298
scalar simple_scenario_network.node[0].content_store 	hits[0] 	24424
scalar simple_scenario_network.node[0].content_store 	misses[0] 	156097
scalar simple_scenario_network.node[1].core_layer 	interests[1] 	60512
scalar simple_scenario_network.node[1].core_layer 	data[1] 	51821
scalar simple_scenario_network.node[1].content_store 	p_hit[1] 	0.14362440507668
scalar simple_scenario_network.node[1].content_store 	hits[1] 	8691
scalar simple_scenario_network.node[1].content_store 	misses[1] 	51821
scalar simple_scenario_network.node[2].core_layer 	interests[2] 	95585
scalar simple_scenario_network.node[2].core_layer 	data[2] 	66799
scalar simple_scenario_network.node[2].content_store 	p_hit[2] 	0.30115603912748
scalar simple_scenario_network.node[2].content_store 	hits[2] 	28786
scalar simple_scenario_network.node[2].content_store 	misses[2] 	66799
scalar simple_scenario_network.node[3].core_layer 	interests[3] 	51821
scalar simple_scenario_network.node[3].core_layer 	repo_load[3] 	51821
scalar simple_scenario_network.node[3].core_layer 	data[3] 	0
scalar simple_scenario_network.node[3].content_store 	p_hit[3] 	0
scalar simple_scenario_network.node[3].content_store 	hits[3] 	0
scalar simple_scenario_network.node[3].content_store 	misses[3] 	51821
scalar simple_scenario_network.node[4].core_layer 	interests[4] 	66799
scalar simple_scenario_network.node[4].core_layer 	repo_load[4] 	66799
scalar simple_scenario_network.node[4].core_layer 	data[4] 	0
scalar simple_scenario_network.node[4].content_store 	p_hit[4] 	0
scalar simple_scenario_network.node[4].content_store 	hits[4] 	0
scalar simple_scenario_network.node[4].content_store 	misses[4] 	66799
scalar simple_scenario_network.client[0] 	hdistance[0] 	2.1788988538729
scalar simple_scenario_network.client[0] 	downloads[0] 	180521
scalar simple_scenario_network.client[0] 	avg_time[0] 	0.001985150165
