version 2
run General-4817-20140423-20:33:46-31984
attr D prob_cache
attr F nrr
attr R lru
attr a 1.2
attr configname General
attr csize 2
attr ctlg 10^3
attr datetime 20140423-20:33:46
attr experiment General
attr inifile omnetpp.ini
attr iterationvars "$net=simple_scenario, $rep=14, $priceratiovalue=4, $a=1.2, $ctlg=10^3, $F=nrr, $ttl=1000, $D=prob_cache, $R=lru, $csize=2"
attr iterationvars2 "$net=simple_scenario, $rep=14, $priceratiovalue=4, $a=1.2, $ctlg=10^3, $F=nrr, $ttl=1000, $D=prob_cache, $R=lru, $csize=2, $repetition=0"
attr measurement "$net=simple_scenario, $rep=14, $priceratiovalue=4, $a=1.2, $ctlg=10^3, $F=nrr, $ttl=1000, $D=prob_cache, $R=lru, $csize=2"
attr net simple_scenario
attr network networks.${net=simple_scenario}_network
attr priceratiovalue 4
attr processid 31984
attr rep 14
attr repetition 0
attr replication #0
attr resultdir results
attr runnumber 4817
attr seedset 14
attr ttl 1000

scalar . 	a 	1.2
scalar . 	csize 	2
scalar . 	priceratiovalue 	4
scalar . 	rep 	14
scalar . 	ttl 	1000
scalar simple_scenario_network.content_distribution 	repo-0 	3
scalar simple_scenario_network.content_distribution 	repo-1 	4
scalar simple_scenario_network.content_distribution 	client-0 	0
scalar simple_scenario_network.content_distribution 	repo-0_card 	487
scalar simple_scenario_network.content_distribution 	repo-1_card 	513
scalar simple_scenario_network.statistics 	p_hit 	0.12183182277718
scalar simple_scenario_network.statistics 	interests 	90209.6
scalar simple_scenario_network.statistics 	data 	54201.4
scalar simple_scenario_network.statistics 	hdistance 	2.2000322148844
scalar simple_scenario_network.statistics 	avg_time 	0.001985752939
scalar simple_scenario_network.statistics 	downloads 	180041
scalar simple_scenario_network.statistics 	total_cost 	58833
scalar simple_scenario_network.node[0].core_layer 	interests[0] 	180041
scalar simple_scenario_network.node[0].core_layer 	data[0] 	145918
scalar simple_scenario_network.node[0].core_layer 	repo_int[0] 	125089
scalar simple_scenario_network.node[0].content_store 	p_hit[0] 	0.189529051716
scalar simple_scenario_network.node[0].content_store 	hits[0] 	34123
scalar simple_scenario_network.node[0].content_store 	misses[0] 	145918
scalar simple_scenario_network.node[1].core_layer 	interests[1] 	79217
scalar simple_scenario_network.node[1].core_layer 	data[1] 	68730
scalar simple_scenario_network.node[1].content_store 	p_hit[1] 	0.13238320057563
scalar simple_scenario_network.node[1].content_store 	hits[1] 	10487
scalar simple_scenario_network.node[1].content_store 	misses[1] 	68730
scalar simple_scenario_network.node[2].core_layer 	interests[2] 	66701
scalar simple_scenario_network.node[2].core_layer 	data[2] 	56359
scalar simple_scenario_network.node[2].content_store 	p_hit[2] 	0.15505014917318
scalar simple_scenario_network.node[2].content_store 	hits[2] 	10342
scalar simple_scenario_network.node[2].content_store 	misses[2] 	56359
scalar simple_scenario_network.node[3].core_layer 	interests[3] 	68730
scalar simple_scenario_network.node[3].core_layer 	repo_load[3] 	68730
scalar simple_scenario_network.node[3].core_layer 	data[3] 	0
scalar simple_scenario_network.node[3].content_store 	p_hit[3] 	0
scalar simple_scenario_network.node[3].content_store 	hits[3] 	0
scalar simple_scenario_network.node[3].content_store 	misses[3] 	68730
scalar simple_scenario_network.node[4].core_layer 	interests[4] 	56359
scalar simple_scenario_network.node[4].core_layer 	repo_load[4] 	56359
scalar simple_scenario_network.node[4].core_layer 	data[4] 	0
scalar simple_scenario_network.node[4].content_store 	p_hit[4] 	0
scalar simple_scenario_network.node[4].content_store 	hits[4] 	0
scalar simple_scenario_network.node[4].content_store 	misses[4] 	56359
scalar simple_scenario_network.client[0] 	hdistance[0] 	2.2000322148844
scalar simple_scenario_network.client[0] 	downloads[0] 	180041
scalar simple_scenario_network.client[0] 	avg_time[0] 	0.001985752939
