version 2
run General-5221-20140423-20:43:55-32428
attr D lce
attr F nrr
attr R lru
attr a 0
attr configname General
attr csize 2
attr ctlg 10^3
attr datetime 20140423-20:43:55
attr experiment General
attr inifile omnetpp.ini
attr iterationvars "$net=simple_scenario, $rep=15, $priceratiovalue=6, $a=0, $ctlg=10^3, $F=nrr, $ttl=1000, $D=lce, $R=lru, $csize=2"
attr iterationvars2 "$net=simple_scenario, $rep=15, $priceratiovalue=6, $a=0, $ctlg=10^3, $F=nrr, $ttl=1000, $D=lce, $R=lru, $csize=2, $repetition=0"
attr measurement "$net=simple_scenario, $rep=15, $priceratiovalue=6, $a=0, $ctlg=10^3, $F=nrr, $ttl=1000, $D=lce, $R=lru, $csize=2"
attr net simple_scenario
attr network networks.${net=simple_scenario}_network
attr priceratiovalue 6
attr processid 32428
attr rep 15
attr repetition 0
attr replication #0
attr resultdir results
attr runnumber 5221
attr seedset 15
attr ttl 1000

scalar . 	a 	0
scalar . 	csize 	2
scalar . 	priceratiovalue 	6
scalar . 	rep 	15
scalar . 	ttl 	1000
scalar simple_scenario_network.content_distribution 	repo-0 	3
scalar simple_scenario_network.content_distribution 	repo-1 	4
scalar simple_scenario_network.content_distribution 	client-0 	0
scalar simple_scenario_network.content_distribution 	repo-0_card 	472
scalar simple_scenario_network.content_distribution 	repo-1_card 	528
scalar simple_scenario_network.statistics 	p_hit 	0.0012955381665544
scalar simple_scenario_network.statistics 	interests 	108063.2
scalar simple_scenario_network.statistics 	data 	71972.8
scalar simple_scenario_network.statistics 	hdistance 	2.9903575466052
scalar simple_scenario_network.statistics 	avg_time 	0.001999798614
scalar simple_scenario_network.statistics 	downloads 	180452
scalar simple_scenario_network.statistics 	total_cost 	93313
scalar simple_scenario_network.node[0].core_layer 	interests[0] 	180452
scalar simple_scenario_network.node[0].core_layer 	data[0] 	180112
scalar simple_scenario_network.node[0].core_layer 	repo_int[0] 	179752
scalar simple_scenario_network.node[0].content_store 	p_hit[0] 	0.0018841575599051
scalar simple_scenario_network.node[0].content_store 	hits[0] 	340
scalar simple_scenario_network.node[0].content_store 	misses[0] 	180112
scalar simple_scenario_network.node[1].core_layer 	interests[1] 	85250
scalar simple_scenario_network.node[1].core_layer 	data[1] 	85062
scalar simple_scenario_network.node[1].content_store 	p_hit[1] 	0.0022052785923754
scalar simple_scenario_network.node[1].content_store 	hits[1] 	188
scalar simple_scenario_network.node[1].content_store 	misses[1] 	85062
scalar simple_scenario_network.node[2].core_layer 	interests[2] 	94862
scalar simple_scenario_network.node[2].core_layer 	data[2] 	94690
scalar simple_scenario_network.node[2].content_store 	p_hit[2] 	0.0018131601695094
scalar simple_scenario_network.node[2].content_store 	hits[2] 	172
scalar simple_scenario_network.node[2].content_store 	misses[2] 	94690
scalar simple_scenario_network.node[3].core_layer 	interests[3] 	85062
scalar simple_scenario_network.node[3].core_layer 	repo_load[3] 	85062
scalar simple_scenario_network.node[3].core_layer 	data[3] 	0
scalar simple_scenario_network.node[3].content_store 	p_hit[3] 	0
scalar simple_scenario_network.node[3].content_store 	hits[3] 	0
scalar simple_scenario_network.node[3].content_store 	misses[3] 	85062
scalar simple_scenario_network.node[4].core_layer 	interests[4] 	94690
scalar simple_scenario_network.node[4].core_layer 	repo_load[4] 	94690
scalar simple_scenario_network.node[4].core_layer 	data[4] 	0
scalar simple_scenario_network.node[4].content_store 	p_hit[4] 	0
scalar simple_scenario_network.node[4].content_store 	hits[4] 	0
scalar simple_scenario_network.node[4].content_store 	misses[4] 	94690
scalar simple_scenario_network.client[0] 	hdistance[0] 	2.9903575466052
scalar simple_scenario_network.client[0] 	downloads[0] 	180452
scalar simple_scenario_network.client[0] 	avg_time[0] 	0.001999798614
