version 2
run General-901-20140423-18:54:42-26735
attr D lce
attr F nrr
attr R lru
attr a 0
attr configname General
attr csize 2
attr ctlg 10^3
attr datetime 20140423-18:54:42
attr experiment General
attr inifile omnetpp.ini
attr iterationvars "$net=simple_scenario, $rep=3, $priceratiovalue=6, $a=0, $ctlg=10^3, $F=nrr, $ttl=1000, $D=lce, $R=lru, $csize=2"
attr iterationvars2 "$net=simple_scenario, $rep=3, $priceratiovalue=6, $a=0, $ctlg=10^3, $F=nrr, $ttl=1000, $D=lce, $R=lru, $csize=2, $repetition=0"
attr measurement "$net=simple_scenario, $rep=3, $priceratiovalue=6, $a=0, $ctlg=10^3, $F=nrr, $ttl=1000, $D=lce, $R=lru, $csize=2"
attr net simple_scenario
attr network networks.${net=simple_scenario}_network
attr priceratiovalue 6
attr processid 26735
attr rep 3
attr repetition 0
attr replication #0
attr resultdir results
attr runnumber 901
attr seedset 3
attr ttl 1000

scalar . 	a 	0
scalar . 	csize 	2
scalar . 	priceratiovalue 	6
scalar . 	rep 	3
scalar . 	ttl 	1000
scalar simple_scenario_network.content_distribution 	repo-0 	3
scalar simple_scenario_network.content_distribution 	repo-1 	4
scalar simple_scenario_network.content_distribution 	client-0 	0
scalar simple_scenario_network.content_distribution 	repo-0_card 	524
scalar simple_scenario_network.content_distribution 	repo-1_card 	476
scalar simple_scenario_network.statistics 	p_hit 	0.0012900367465013
scalar simple_scenario_network.statistics 	interests 	107438.8
scalar simple_scenario_network.statistics 	data 	71555.8
scalar simple_scenario_network.statistics 	hdistance 	2.9902795195497
scalar simple_scenario_network.statistics 	avg_time 	0.001999825575
scalar simple_scenario_network.statistics 	downloads 	179415
scalar simple_scenario_network.statistics 	total_cost 	86089
scalar simple_scenario_network.node[0].core_layer 	interests[0] 	179415
scalar simple_scenario_network.node[0].core_layer 	data[0] 	179057
scalar simple_scenario_network.node[0].core_layer 	repo_int[0] 	178722
scalar simple_scenario_network.node[0].content_store 	p_hit[0] 	0.0019953738539141
scalar simple_scenario_network.node[0].content_store 	hits[0] 	358
scalar simple_scenario_network.node[0].content_store 	misses[0] 	179057
scalar simple_scenario_network.node[1].core_layer 	interests[1] 	94108
scalar simple_scenario_network.node[1].core_layer 	data[1] 	93941
scalar simple_scenario_network.node[1].content_store 	p_hit[1] 	0.0017745568920814
scalar simple_scenario_network.node[1].content_store 	hits[1] 	167
scalar simple_scenario_network.node[1].content_store 	misses[1] 	93941
scalar simple_scenario_network.node[2].core_layer 	interests[2] 	84949
scalar simple_scenario_network.node[2].core_layer 	data[2] 	84781
scalar simple_scenario_network.node[2].content_store 	p_hit[2] 	0.0019776571825448
scalar simple_scenario_network.node[2].content_store 	hits[2] 	168
scalar simple_scenario_network.node[2].content_store 	misses[2] 	84781
scalar simple_scenario_network.node[3].core_layer 	interests[3] 	93941
scalar simple_scenario_network.node[3].core_layer 	repo_load[3] 	93941
scalar simple_scenario_network.node[3].core_layer 	data[3] 	0
scalar simple_scenario_network.node[3].content_store 	p_hit[3] 	0
scalar simple_scenario_network.node[3].content_store 	hits[3] 	0
scalar simple_scenario_network.node[3].content_store 	misses[3] 	93941
scalar simple_scenario_network.node[4].core_layer 	interests[4] 	84781
scalar simple_scenario_network.node[4].core_layer 	repo_load[4] 	84781
scalar simple_scenario_network.node[4].core_layer 	data[4] 	0
scalar simple_scenario_network.node[4].content_store 	p_hit[4] 	0
scalar simple_scenario_network.node[4].content_store 	hits[4] 	0
scalar simple_scenario_network.node[4].content_store 	misses[4] 	84781
scalar simple_scenario_network.client[0] 	hdistance[0] 	2.9902795195497
scalar simple_scenario_network.client[0] 	downloads[0] 	179415
scalar simple_scenario_network.client[0] 	avg_time[0] 	0.001999825575
