version 2
run General-558-20140502-11:11:21-14310
attr D costprob0.05
attr F nrr
attr R lru
attr a 1
attr configname General
attr csize 1e3
attr ctlg 1e5
attr datetime 20140502-11:11:21
attr experiment General
attr inifile omnetpp.ini
attr iterationvars "$net=three_caches_scenario_3_links, $rep=4, $priceratiovalue=10, $weights=0.333_0.333_0.334, $a=1, $ctlg=1e5, $F=nrr, $ttl=1000, $D=costprob0.05, $xi=1, $R=lru, $csize=1e3"
attr iterationvars2 "$net=three_caches_scenario_3_links, $rep=4, $priceratiovalue=10, $weights=0.333_0.333_0.334, $a=1, $ctlg=1e5, $F=nrr, $ttl=1000, $D=costprob0.05, $xi=1, $R=lru, $csize=1e3, $repetition=0"
attr measurement "$net=three_caches_scenario_3_links, $rep=4, $priceratiovalue=10, $weights=0.333_0.333_0.334, $a=1, $ctlg=1e5, $F=nrr, $ttl=1000, $D=costprob0.05, $xi=1, $R=lru, $csize=1e3"
attr net three_caches_scenario_3_links
attr network networks.${net=three_caches_scenario_3_links}_network
attr priceratiovalue 10
attr processid 14310
attr rep 4
attr repetition 0
attr replication #0
attr resultdir results
attr runnumber 558
attr seedset 4
attr ttl 1000
attr weights 0.333_0.333_0.334
attr xi 1

scalar . 	a 	1
scalar . 	csize 	1e3
scalar . 	ctlg 	1e5
scalar . 	priceratiovalue 	10
scalar . 	rep 	4
scalar . 	ttl 	1000
scalar . 	xi 	1
scalar three_caches_scenario_3_links_network.content_distribution 	repo-0 	4
scalar three_caches_scenario_3_links_network.content_distribution 	repo-1 	5
scalar three_caches_scenario_3_links_network.content_distribution 	repo-2 	6
scalar three_caches_scenario_3_links_network.content_distribution 	client-0 	0
scalar three_caches_scenario_3_links_network.content_distribution 	repo-0_card 	33584
scalar three_caches_scenario_3_links_network.content_distribution 	repo-1_card 	33055
scalar three_caches_scenario_3_links_network.content_distribution 	repo-2_card 	33361
scalar three_caches_scenario_3_links_network.statistics 	p_hit 	0.12740631339272
scalar three_caches_scenario_3_links_network.statistics 	interests 	65000.142857143
scalar three_caches_scenario_3_links_network.statistics 	data 	39356.857142857
scalar three_caches_scenario_3_links_network.statistics 	hdistance 	1.8152732823407
scalar three_caches_scenario_3_links_network.statistics 	avg_time 	0
scalar three_caches_scenario_3_links_network.statistics 	downloads 	179503
scalar three_caches_scenario_3_links_network.statistics 	total_cost 	272226
scalar three_caches_scenario_3_links_network.statistics 	total_replicas 	100000
scalar three_caches_scenario_3_links_network.statistics 	interests_sent 	179503
scalar three_caches_scenario_3_links_network.node[0].core_layer 	interests[0] 	179503
scalar three_caches_scenario_3_links_network.node[0].core_layer 	data[0] 	153965
scalar three_caches_scenario_3_links_network.node[0].core_layer 	repo_int[0] 	121533
scalar three_caches_scenario_3_links_network.node[0].content_store 	p_hit[0] 	0.14227060271973
scalar three_caches_scenario_3_links_network.node[0].content_store 	hits[0] 	25538
scalar three_caches_scenario_3_links_network.node[0].content_store 	misses[0] 	153965
scalar three_caches_scenario_3_links_network.node[0].content_store 	decision_yes[0] 	3724
scalar three_caches_scenario_3_links_network.node[0].content_store 	decision_no[0] 	150241
scalar three_caches_scenario_3_links_network.node[1].core_layer 	interests[1] 	71184
scalar three_caches_scenario_3_links_network.node[1].core_layer 	data[1] 	71184
scalar three_caches_scenario_3_links_network.node[1].content_store 	p_hit[1] 	0
scalar three_caches_scenario_3_links_network.node[1].content_store 	hits[1] 	0
scalar three_caches_scenario_3_links_network.node[1].content_store 	misses[1] 	71184
scalar three_caches_scenario_3_links_network.node[1].content_store 	decision_yes[1] 	0
scalar three_caches_scenario_3_links_network.node[1].content_store 	decision_no[1] 	71184
scalar three_caches_scenario_3_links_network.node[2].core_layer 	interests[2] 	48171
scalar three_caches_scenario_3_links_network.node[2].core_layer 	data[2] 	25696
scalar three_caches_scenario_3_links_network.node[2].content_store 	p_hit[2] 	0.46656702165203
scalar three_caches_scenario_3_links_network.node[2].content_store 	hits[2] 	22475
scalar three_caches_scenario_3_links_network.node[2].content_store 	misses[2] 	25696
scalar three_caches_scenario_3_links_network.node[2].content_store 	decision_yes[2] 	355
scalar three_caches_scenario_3_links_network.node[2].content_store 	decision_no[2] 	25341
scalar three_caches_scenario_3_links_network.node[3].core_layer 	interests[3] 	34610
scalar three_caches_scenario_3_links_network.node[3].core_layer 	data[3] 	24653
scalar three_caches_scenario_3_links_network.node[3].content_store 	p_hit[3] 	0.28769141866513
scalar three_caches_scenario_3_links_network.node[3].content_store 	hits[3] 	9957
scalar three_caches_scenario_3_links_network.node[3].content_store 	misses[3] 	24653
scalar three_caches_scenario_3_links_network.node[3].content_store 	decision_yes[3] 	3372
scalar three_caches_scenario_3_links_network.node[3].content_store 	decision_no[3] 	21281
scalar three_caches_scenario_3_links_network.node[4].core_layer 	interests[4] 	71184
scalar three_caches_scenario_3_links_network.node[4].core_layer 	repo_load[4] 	71184
scalar three_caches_scenario_3_links_network.node[4].core_layer 	data[4] 	0
scalar three_caches_scenario_3_links_network.node[4].content_store 	p_hit[4] 	0
scalar three_caches_scenario_3_links_network.node[4].content_store 	hits[4] 	0
scalar three_caches_scenario_3_links_network.node[4].content_store 	misses[4] 	71184
scalar three_caches_scenario_3_links_network.node[4].content_store 	decision_yes[4] 	0
scalar three_caches_scenario_3_links_network.node[4].content_store 	decision_no[4] 	71184
scalar three_caches_scenario_3_links_network.node[5].core_layer 	interests[5] 	25696
scalar three_caches_scenario_3_links_network.node[5].core_layer 	repo_load[5] 	25696
scalar three_caches_scenario_3_links_network.node[5].core_layer 	data[5] 	0
scalar three_caches_scenario_3_links_network.node[5].content_store 	p_hit[5] 	0
scalar three_caches_scenario_3_links_network.node[5].content_store 	hits[5] 	0
scalar three_caches_scenario_3_links_network.node[5].content_store 	misses[5] 	25696
scalar three_caches_scenario_3_links_network.node[5].content_store 	decision_yes[5] 	0
scalar three_caches_scenario_3_links_network.node[5].content_store 	decision_no[5] 	25696
scalar three_caches_scenario_3_links_network.node[6].core_layer 	interests[6] 	24653
scalar three_caches_scenario_3_links_network.node[6].core_layer 	repo_load[6] 	24653
scalar three_caches_scenario_3_links_network.node[6].core_layer 	data[6] 	0
scalar three_caches_scenario_3_links_network.node[6].content_store 	p_hit[6] 	0
scalar three_caches_scenario_3_links_network.node[6].content_store 	hits[6] 	0
scalar three_caches_scenario_3_links_network.node[6].content_store 	misses[6] 	24653
scalar three_caches_scenario_3_links_network.node[6].content_store 	decision_yes[6] 	0
scalar three_caches_scenario_3_links_network.node[6].content_store 	decision_no[6] 	24653
scalar three_caches_scenario_3_links_network.client[0] 	hdistance[0] 	1.8152732823407
scalar three_caches_scenario_3_links_network.client[0] 	downloads[0] 	179503
scalar three_caches_scenario_3_links_network.client[0] 	avg_time[0] 	0
scalar three_caches_scenario_3_links_network.client[0] 	interests_sent[0] 	179503
