version 2
run General-16-20140423-04:41:07-8257
attr D costprob0.1
attr F nrr
attr R lru
attr a 1.2
attr configname General
attr csize 10^3
attr ctlg 10^8
attr datetime 20140423-04:41:07
attr experiment General
attr inifile omnetpp.ini
attr iterationvars "$net=simple_scenario, $rep=1, $priceratiovalue=1, $a=1.2, $ctlg=10^8, $F=nrr, $ttl=1000, $D=costprob0.1, $R=lru, $csize=10^3"
attr iterationvars2 "$net=simple_scenario, $rep=1, $priceratiovalue=1, $a=1.2, $ctlg=10^8, $F=nrr, $ttl=1000, $D=costprob0.1, $R=lru, $csize=10^3, $repetition=0"
attr measurement "$net=simple_scenario, $rep=1, $priceratiovalue=1, $a=1.2, $ctlg=10^8, $F=nrr, $ttl=1000, $D=costprob0.1, $R=lru, $csize=10^3"
attr net simple_scenario
attr network networks.${net=simple_scenario}_network
attr priceratiovalue 1
attr processid 8257
attr rep 1
attr repetition 0
attr replication #0
attr resultdir results
attr runnumber 16
attr seedset 1
attr ttl 1000

scalar . 	a 	1.2
scalar . 	priceratiovalue 	1
scalar . 	rep 	1
scalar . 	ttl 	1000
scalar simple_scenario_network.content_distribution 	repo-0 	3
scalar simple_scenario_network.content_distribution 	repo-1 	4
scalar simple_scenario_network.content_distribution 	client-0 	0
scalar simple_scenario_network.content_distribution 	repo-0_card 	50003719
scalar simple_scenario_network.content_distribution 	repo-1_card 	49996281
scalar simple_scenario_network.statistics 	p_hit 	0.43135552771314
scalar simple_scenario_network.statistics 	interests 	67044
scalar simple_scenario_network.statistics 	data 	31023.4
scalar simple_scenario_network.statistics 	hdistance 	1.0583999156039
scalar simple_scenario_network.statistics 	avg_time 	0.001990811108
scalar simple_scenario_network.statistics 	downloads 	180103
scalar simple_scenario_network.statistics 	total_cost 	17751
scalar simple_scenario_network.node[0].core_layer 	interests[0] 	180103
scalar simple_scenario_network.node[0].core_layer 	data[0] 	119613
scalar simple_scenario_network.node[0].core_layer 	repo_int[0] 	35504
scalar simple_scenario_network.node[0].content_store 	p_hit[0] 	0.33586336707329
scalar simple_scenario_network.node[0].content_store 	hits[0] 	60490
scalar simple_scenario_network.node[0].content_store 	misses[0] 	119613
scalar simple_scenario_network.node[1].core_layer 	interests[1] 	47577
scalar simple_scenario_network.node[1].core_layer 	data[1] 	18047
scalar simple_scenario_network.node[1].content_store 	p_hit[1] 	0.62067805872585
scalar simple_scenario_network.node[1].content_store 	hits[1] 	29530
scalar simple_scenario_network.node[1].content_store 	misses[1] 	18047
scalar simple_scenario_network.node[2].core_layer 	interests[2] 	72036
scalar simple_scenario_network.node[2].core_layer 	data[2] 	17457
scalar simple_scenario_network.node[2].content_store 	p_hit[2] 	0.75766283524904
scalar simple_scenario_network.node[2].content_store 	hits[2] 	54579
scalar simple_scenario_network.node[2].content_store 	misses[2] 	17457
scalar simple_scenario_network.node[3].core_layer 	interests[3] 	18047
scalar simple_scenario_network.node[3].core_layer 	repo_load[3] 	18047
scalar simple_scenario_network.node[3].core_layer 	data[3] 	0
scalar simple_scenario_network.node[3].content_store 	p_hit[3] 	0
scalar simple_scenario_network.node[3].content_store 	hits[3] 	0
scalar simple_scenario_network.node[3].content_store 	misses[3] 	18047
scalar simple_scenario_network.node[4].core_layer 	interests[4] 	17457
scalar simple_scenario_network.node[4].core_layer 	repo_load[4] 	17457
scalar simple_scenario_network.node[4].core_layer 	data[4] 	0
scalar simple_scenario_network.node[4].content_store 	p_hit[4] 	0
scalar simple_scenario_network.node[4].content_store 	hits[4] 	0
scalar simple_scenario_network.node[4].content_store 	misses[4] 	17457
scalar simple_scenario_network.client[0] 	hdistance[0] 	1.0583999156039
scalar simple_scenario_network.client[0] 	downloads[0] 	180103
scalar simple_scenario_network.client[0] 	avg_time[0] 	0.001990811108
