version 2
run General-68-20140426-21:32:19-15149
attr D costprob0.004
attr F nrr
attr R lru
attr a 1
attr configname General
attr csize 1000
attr ctlg 10^5
attr datetime 20140426-21:32:19
attr experiment General
attr inifile omnetpp.ini
attr iterationvars "$net=one_cache_scenario, $rep=8, $priceratiovalue=10, $a=1, $ctlg=10^5, $F=nrr, $ttl=1000, $D=costprob0.004, $xi=1, $R=lru, $csize=1000"
attr iterationvars2 "$net=one_cache_scenario, $rep=8, $priceratiovalue=10, $a=1, $ctlg=10^5, $F=nrr, $ttl=1000, $D=costprob0.004, $xi=1, $R=lru, $csize=1000, $repetition=0"
attr measurement "$net=one_cache_scenario, $rep=8, $priceratiovalue=10, $a=1, $ctlg=10^5, $F=nrr, $ttl=1000, $D=costprob0.004, $xi=1, $R=lru, $csize=1000"
attr net one_cache_scenario
attr network networks.${net=one_cache_scenario}_network
attr priceratiovalue 10
attr processid 15149
attr rep 8
attr repetition 0
attr replication #0
attr resultdir results
attr runnumber 68
attr seedset 8
attr ttl 1000
attr xi 1

scalar . 	a 	1
scalar . 	csize 	1000
scalar . 	priceratiovalue 	10
scalar . 	rep 	8
scalar . 	ttl 	1000
scalar . 	xi 	1
scalar one_cache_scenario_network.content_distribution 	repo-0 	3
scalar one_cache_scenario_network.content_distribution 	repo-1 	4
scalar one_cache_scenario_network.content_distribution 	client-0 	0
scalar one_cache_scenario_network.content_distribution 	repo-0_card 	49902
scalar one_cache_scenario_network.content_distribution 	repo-1_card 	50098
scalar one_cache_scenario_network.statistics 	p_hit 	0.23396288870138
scalar one_cache_scenario_network.statistics 	interests 	73713.4
scalar one_cache_scenario_network.statistics 	data 	37644.8
scalar one_cache_scenario_network.statistics 	hdistance 	1.0437000604404
scalar one_cache_scenario_network.statistics 	avg_time 	0
scalar one_cache_scenario_network.statistics 	downloads 	180343
scalar one_cache_scenario_network.statistics 	total_cost 	40507
scalar one_cache_scenario_network.statistics 	interests_sent 	180343
scalar one_cache_scenario_network.node[0].core_layer 	interests[0] 	180343
scalar one_cache_scenario_network.node[0].core_layer 	data[0] 	94112
scalar one_cache_scenario_network.node[0].core_layer 	repo_int[0] 	94112
scalar one_cache_scenario_network.node[0].content_store 	p_hit[0] 	0.47814996977981
scalar one_cache_scenario_network.node[0].content_store 	hits[0] 	86231
scalar one_cache_scenario_network.node[0].content_store 	misses[0] 	94112
scalar one_cache_scenario_network.node[0].content_store 	decision_yes[0] 	179
scalar one_cache_scenario_network.node[0].content_store 	decision_no[0] 	93933
scalar one_cache_scenario_network.node[1].core_layer 	interests[1] 	55059
scalar one_cache_scenario_network.node[1].core_layer 	data[1] 	55059
scalar one_cache_scenario_network.node[1].content_store 	p_hit[1] 	0
scalar one_cache_scenario_network.node[1].content_store 	hits[1] 	0
scalar one_cache_scenario_network.node[1].content_store 	misses[1] 	55059
scalar one_cache_scenario_network.node[1].content_store 	decision_yes[1] 	0
scalar one_cache_scenario_network.node[1].content_store 	decision_no[1] 	55059
scalar one_cache_scenario_network.node[2].core_layer 	interests[2] 	39053
scalar one_cache_scenario_network.node[2].core_layer 	data[2] 	39053
scalar one_cache_scenario_network.node[2].content_store 	p_hit[2] 	0
scalar one_cache_scenario_network.node[2].content_store 	hits[2] 	0
scalar one_cache_scenario_network.node[2].content_store 	misses[2] 	39053
scalar one_cache_scenario_network.node[2].content_store 	decision_yes[2] 	0
scalar one_cache_scenario_network.node[2].content_store 	decision_no[2] 	39053
scalar one_cache_scenario_network.node[3].core_layer 	interests[3] 	55059
scalar one_cache_scenario_network.node[3].core_layer 	repo_load[3] 	55059
scalar one_cache_scenario_network.node[3].core_layer 	data[3] 	0
scalar one_cache_scenario_network.node[3].content_store 	p_hit[3] 	0
scalar one_cache_scenario_network.node[3].content_store 	hits[3] 	0
scalar one_cache_scenario_network.node[3].content_store 	misses[3] 	55059
scalar one_cache_scenario_network.node[3].content_store 	decision_yes[3] 	0
scalar one_cache_scenario_network.node[3].content_store 	decision_no[3] 	55059
scalar one_cache_scenario_network.node[4].core_layer 	interests[4] 	39053
scalar one_cache_scenario_network.node[4].core_layer 	repo_load[4] 	39053
scalar one_cache_scenario_network.node[4].core_layer 	data[4] 	0
scalar one_cache_scenario_network.node[4].content_store 	p_hit[4] 	0
scalar one_cache_scenario_network.node[4].content_store 	hits[4] 	0
scalar one_cache_scenario_network.node[4].content_store 	misses[4] 	39053
scalar one_cache_scenario_network.node[4].content_store 	decision_yes[4] 	0
scalar one_cache_scenario_network.node[4].content_store 	decision_no[4] 	39053
scalar one_cache_scenario_network.client[0] 	hdistance[0] 	1.0437000604404
scalar one_cache_scenario_network.client[0] 	downloads[0] 	180343
scalar one_cache_scenario_network.client[0] 	avg_time[0] 	0
scalar one_cache_scenario_network.client[0] 	interests_sent[0] 	180343
