version 2
run General-2-20140502-15:51:06-18115
attr D fix0.1
attr F nrr
attr R lru
attr a 1
attr configname General
attr csize 1e3
attr ctlg 1e5
attr datetime 20140502-15:51:06
attr experiment General
attr inifile omnetpp.ini
attr iterationvars "$net=four_caches_scenario_3_links, $rep=1, $priceratiovalue=10, $weights=0.7_0.15_0.15, $a=1, $ctlg=1e5, $F=nrr, $ttl=1000, $D=fix0.1, $xi=1, $R=lru, $csize=1e3"
attr iterationvars2 "$net=four_caches_scenario_3_links, $rep=1, $priceratiovalue=10, $weights=0.7_0.15_0.15, $a=1, $ctlg=1e5, $F=nrr, $ttl=1000, $D=fix0.1, $xi=1, $R=lru, $csize=1e3, $repetition=0"
attr measurement "$net=four_caches_scenario_3_links, $rep=1, $priceratiovalue=10, $weights=0.7_0.15_0.15, $a=1, $ctlg=1e5, $F=nrr, $ttl=1000, $D=fix0.1, $xi=1, $R=lru, $csize=1e3"
attr net four_caches_scenario_3_links
attr network networks.${net=four_caches_scenario_3_links}_network
attr priceratiovalue 10
attr processid 18115
attr rep 1
attr repetition 0
attr replication #0
attr resultdir results
attr runnumber 2
attr seedset 1
attr ttl 1000
attr weights 0.7_0.15_0.15
attr xi 1

scalar . 	a 	1
scalar . 	csize 	1e3
scalar . 	ctlg 	1e5
scalar . 	priceratiovalue 	10
scalar . 	rep 	1
scalar . 	ttl 	1000
scalar . 	xi 	1
scalar four_caches_scenario_3_links_network.content_distribution 	repo-0 	4
scalar four_caches_scenario_3_links_network.content_distribution 	repo-1 	5
scalar four_caches_scenario_3_links_network.content_distribution 	repo-2 	6
scalar four_caches_scenario_3_links_network.content_distribution 	client-0 	0
scalar four_caches_scenario_3_links_network.content_distribution 	repo-0_card 	70018
scalar four_caches_scenario_3_links_network.content_distribution 	repo-1_card 	15023
scalar four_caches_scenario_3_links_network.content_distribution 	repo-2_card 	14959
scalar four_caches_scenario_3_links_network.statistics 	p_hit 	0.253033512574
scalar four_caches_scenario_3_links_network.statistics 	interests 	52602.857142857
scalar four_caches_scenario_3_links_network.statistics 	data 	26914
scalar four_caches_scenario_3_links_network.statistics 	hdistance 	1.529557006373
scalar four_caches_scenario_3_links_network.statistics 	avg_time 	0
scalar four_caches_scenario_3_links_network.statistics 	downloads 	179822
scalar four_caches_scenario_3_links_network.statistics 	total_cost 	116299
scalar four_caches_scenario_3_links_network.statistics 	total_replicas 	100000
scalar four_caches_scenario_3_links_network.statistics 	interests_sent 	179822
scalar four_caches_scenario_3_links_network.node[0].core_layer 	interests[0] 	179822
scalar four_caches_scenario_3_links_network.node[0].core_layer 	data[0] 	101748
scalar four_caches_scenario_3_links_network.node[0].core_layer 	repo_int[0] 	86650
scalar four_caches_scenario_3_links_network.node[0].content_store 	p_hit[0] 	0.43417379408526
scalar four_caches_scenario_3_links_network.node[0].content_store 	hits[0] 	78074
scalar four_caches_scenario_3_links_network.node[0].content_store 	misses[0] 	101748
scalar four_caches_scenario_3_links_network.node[0].content_store 	decision_yes[0] 	10336
scalar four_caches_scenario_3_links_network.node[0].content_store 	decision_no[0] 	91412
scalar four_caches_scenario_3_links_network.node[1].core_layer 	interests[1] 	71588
scalar four_caches_scenario_3_links_network.node[1].core_layer 	data[1] 	65130
scalar four_caches_scenario_3_links_network.node[1].content_store 	p_hit[1] 	0.09021064982958
scalar four_caches_scenario_3_links_network.node[1].content_store 	hits[1] 	6458
scalar four_caches_scenario_3_links_network.node[1].content_store 	misses[1] 	65130
scalar four_caches_scenario_3_links_network.node[1].content_store 	decision_yes[1] 	6603
scalar four_caches_scenario_3_links_network.node[1].content_store 	decision_no[1] 	58527
scalar four_caches_scenario_3_links_network.node[2].core_layer 	interests[2] 	15751
scalar four_caches_scenario_3_links_network.node[2].core_layer 	data[2] 	10989
scalar four_caches_scenario_3_links_network.node[2].content_store 	p_hit[2] 	0.30233001079297
scalar four_caches_scenario_3_links_network.node[2].content_store 	hits[2] 	4762
scalar four_caches_scenario_3_links_network.node[2].content_store 	misses[2] 	10989
scalar four_caches_scenario_3_links_network.node[2].content_store 	decision_yes[2] 	1148
scalar four_caches_scenario_3_links_network.node[2].content_store 	decision_no[2] 	9841
scalar four_caches_scenario_3_links_network.node[3].core_layer 	interests[3] 	14409
scalar four_caches_scenario_3_links_network.node[3].core_layer 	data[3] 	10531
scalar four_caches_scenario_3_links_network.node[3].content_store 	p_hit[3] 	0.26913734471511
scalar four_caches_scenario_3_links_network.node[3].content_store 	hits[3] 	3878
scalar four_caches_scenario_3_links_network.node[3].content_store 	misses[3] 	10531
scalar four_caches_scenario_3_links_network.node[3].content_store 	decision_yes[3] 	1036
scalar four_caches_scenario_3_links_network.node[3].content_store 	decision_no[3] 	9495
scalar four_caches_scenario_3_links_network.node[4].core_layer 	interests[4] 	65130
scalar four_caches_scenario_3_links_network.node[4].core_layer 	repo_load[4] 	65130
scalar four_caches_scenario_3_links_network.node[4].core_layer 	data[4] 	0
scalar four_caches_scenario_3_links_network.node[4].content_store 	p_hit[4] 	0
scalar four_caches_scenario_3_links_network.node[4].content_store 	hits[4] 	0
scalar four_caches_scenario_3_links_network.node[4].content_store 	misses[4] 	65130
scalar four_caches_scenario_3_links_network.node[4].content_store 	decision_yes[4] 	0
scalar four_caches_scenario_3_links_network.node[4].content_store 	decision_no[4] 	65130
scalar four_caches_scenario_3_links_network.node[5].core_layer 	interests[5] 	10989
scalar four_caches_scenario_3_links_network.node[5].core_layer 	repo_load[5] 	10989
scalar four_caches_scenario_3_links_network.node[5].core_layer 	data[5] 	0
scalar four_caches_scenario_3_links_network.node[5].content_store 	p_hit[5] 	0
scalar four_caches_scenario_3_links_network.node[5].content_store 	hits[5] 	0
scalar four_caches_scenario_3_links_network.node[5].content_store 	misses[5] 	10989
scalar four_caches_scenario_3_links_network.node[5].content_store 	decision_yes[5] 	0
scalar four_caches_scenario_3_links_network.node[5].content_store 	decision_no[5] 	10989
scalar four_caches_scenario_3_links_network.node[6].core_layer 	interests[6] 	10531
scalar four_caches_scenario_3_links_network.node[6].core_layer 	repo_load[6] 	10531
scalar four_caches_scenario_3_links_network.node[6].core_layer 	data[6] 	0
scalar four_caches_scenario_3_links_network.node[6].content_store 	p_hit[6] 	0
scalar four_caches_scenario_3_links_network.node[6].content_store 	hits[6] 	0
scalar four_caches_scenario_3_links_network.node[6].content_store 	misses[6] 	10531
scalar four_caches_scenario_3_links_network.node[6].content_store 	decision_yes[6] 	0
scalar four_caches_scenario_3_links_network.node[6].content_store 	decision_no[6] 	10531
scalar four_caches_scenario_3_links_network.client[0] 	hdistance[0] 	1.529557006373
scalar four_caches_scenario_3_links_network.client[0] 	downloads[0] 	179822
scalar four_caches_scenario_3_links_network.client[0] 	avg_time[0] 	0
scalar four_caches_scenario_3_links_network.client[0] 	interests_sent[0] 	179822
