version 2
run General-529-20140502-11:05:36-13963
attr D fix0.1
attr F nrr
attr R lru
attr a 1.2
attr configname General
attr csize 1e3
attr ctlg 1e5
attr datetime 20140502-11:05:36
attr experiment General
attr inifile omnetpp.ini
attr iterationvars "$net=three_caches_scenario_3_links, $rep=4, $priceratiovalue=5, $weights=0.333_0.333_0.334, $a=1.2, $ctlg=1e5, $F=nrr, $ttl=1000, $D=fix0.1, $xi=1, $R=lru, $csize=1e3"
attr iterationvars2 "$net=three_caches_scenario_3_links, $rep=4, $priceratiovalue=5, $weights=0.333_0.333_0.334, $a=1.2, $ctlg=1e5, $F=nrr, $ttl=1000, $D=fix0.1, $xi=1, $R=lru, $csize=1e3, $repetition=0"
attr measurement "$net=three_caches_scenario_3_links, $rep=4, $priceratiovalue=5, $weights=0.333_0.333_0.334, $a=1.2, $ctlg=1e5, $F=nrr, $ttl=1000, $D=fix0.1, $xi=1, $R=lru, $csize=1e3"
attr net three_caches_scenario_3_links
attr network networks.${net=three_caches_scenario_3_links}_network
attr priceratiovalue 5
attr processid 13963
attr rep 4
attr repetition 0
attr replication #0
attr resultdir results
attr runnumber 529
attr seedset 4
attr ttl 1000
attr weights 0.333_0.333_0.334
attr xi 1

scalar . 	a 	1.2
scalar . 	csize 	1e3
scalar . 	ctlg 	1e5
scalar . 	priceratiovalue 	5
scalar . 	rep 	4
scalar . 	ttl 	1000
scalar . 	xi 	1
scalar three_caches_scenario_3_links_network.content_distribution 	repo-0 	4
scalar three_caches_scenario_3_links_network.content_distribution 	repo-1 	5
scalar three_caches_scenario_3_links_network.content_distribution 	repo-2 	6
scalar three_caches_scenario_3_links_network.content_distribution 	client-0 	0
scalar three_caches_scenario_3_links_network.content_distribution 	repo-0_card 	33584
scalar three_caches_scenario_3_links_network.content_distribution 	repo-1_card 	33055
scalar three_caches_scenario_3_links_network.content_distribution 	repo-2_card 	33361
scalar three_caches_scenario_3_links_network.statistics 	p_hit 	0.55384869571232
scalar three_caches_scenario_3_links_network.statistics 	interests 	37179.571428571
scalar three_caches_scenario_3_links_network.statistics 	data 	11444.428571429
scalar three_caches_scenario_3_links_network.statistics 	hdistance 	0.55969047328277
scalar three_caches_scenario_3_links_network.statistics 	avg_time 	0
scalar three_caches_scenario_3_links_network.statistics 	downloads 	180146
scalar three_caches_scenario_3_links_network.statistics 	total_cost 	63363
scalar three_caches_scenario_3_links_network.statistics 	total_replicas 	100000
scalar three_caches_scenario_3_links_network.statistics 	interests_sent 	180146
scalar three_caches_scenario_3_links_network.node[0].core_layer 	interests[0] 	180146
scalar three_caches_scenario_3_links_network.node[0].core_layer 	data[0] 	44108
scalar three_caches_scenario_3_links_network.node[0].core_layer 	repo_int[0] 	36003
scalar three_caches_scenario_3_links_network.node[0].content_store 	p_hit[0] 	0.75515415274278
scalar three_caches_scenario_3_links_network.node[0].content_store 	hits[0] 	136038
scalar three_caches_scenario_3_links_network.node[0].content_store 	misses[0] 	44108
scalar three_caches_scenario_3_links_network.node[0].content_store 	decision_yes[0] 	4501
scalar three_caches_scenario_3_links_network.node[0].content_store 	decision_no[0] 	39607
scalar three_caches_scenario_3_links_network.node[1].core_layer 	interests[1] 	15288
scalar three_caches_scenario_3_links_network.node[1].core_layer 	data[1] 	15288
scalar three_caches_scenario_3_links_network.node[1].content_store 	p_hit[1] 	0
scalar three_caches_scenario_3_links_network.node[1].content_store 	hits[1] 	0
scalar three_caches_scenario_3_links_network.node[1].content_store 	misses[1] 	15288
scalar three_caches_scenario_3_links_network.node[1].content_store 	decision_yes[1] 	0
scalar three_caches_scenario_3_links_network.node[1].content_store 	decision_no[1] 	15288
scalar three_caches_scenario_3_links_network.node[2].core_layer 	interests[2] 	13875
scalar three_caches_scenario_3_links_network.node[2].core_layer 	data[2] 	10053
scalar three_caches_scenario_3_links_network.node[2].content_store 	p_hit[2] 	0.27545945945946
scalar three_caches_scenario_3_links_network.node[2].content_store 	hits[2] 	3822
scalar three_caches_scenario_3_links_network.node[2].content_store 	misses[2] 	10053
scalar three_caches_scenario_3_links_network.node[2].content_store 	decision_yes[2] 	991
scalar three_caches_scenario_3_links_network.node[2].content_store 	decision_no[2] 	9062
scalar three_caches_scenario_3_links_network.node[3].core_layer 	interests[3] 	14945
scalar three_caches_scenario_3_links_network.node[3].core_layer 	data[3] 	10662
scalar three_caches_scenario_3_links_network.node[3].content_store 	p_hit[3] 	0.28658414185346
scalar three_caches_scenario_3_links_network.node[3].content_store 	hits[3] 	4283
scalar three_caches_scenario_3_links_network.node[3].content_store 	misses[3] 	10662
scalar three_caches_scenario_3_links_network.node[3].content_store 	decision_yes[3] 	1118
scalar three_caches_scenario_3_links_network.node[3].content_store 	decision_no[3] 	9544
scalar three_caches_scenario_3_links_network.node[4].core_layer 	interests[4] 	15288
scalar three_caches_scenario_3_links_network.node[4].core_layer 	repo_load[4] 	15288
scalar three_caches_scenario_3_links_network.node[4].core_layer 	data[4] 	0
scalar three_caches_scenario_3_links_network.node[4].content_store 	p_hit[4] 	0
scalar three_caches_scenario_3_links_network.node[4].content_store 	hits[4] 	0
scalar three_caches_scenario_3_links_network.node[4].content_store 	misses[4] 	15288
scalar three_caches_scenario_3_links_network.node[4].content_store 	decision_yes[4] 	0
scalar three_caches_scenario_3_links_network.node[4].content_store 	decision_no[4] 	15288
scalar three_caches_scenario_3_links_network.node[5].core_layer 	interests[5] 	10053
scalar three_caches_scenario_3_links_network.node[5].core_layer 	repo_load[5] 	10053
scalar three_caches_scenario_3_links_network.node[5].core_layer 	data[5] 	0
scalar three_caches_scenario_3_links_network.node[5].content_store 	p_hit[5] 	0
scalar three_caches_scenario_3_links_network.node[5].content_store 	hits[5] 	0
scalar three_caches_scenario_3_links_network.node[5].content_store 	misses[5] 	10053
scalar three_caches_scenario_3_links_network.node[5].content_store 	decision_yes[5] 	0
scalar three_caches_scenario_3_links_network.node[5].content_store 	decision_no[5] 	10053
scalar three_caches_scenario_3_links_network.node[6].core_layer 	interests[6] 	10662
scalar three_caches_scenario_3_links_network.node[6].core_layer 	repo_load[6] 	10662
scalar three_caches_scenario_3_links_network.node[6].core_layer 	data[6] 	0
scalar three_caches_scenario_3_links_network.node[6].content_store 	p_hit[6] 	0
scalar three_caches_scenario_3_links_network.node[6].content_store 	hits[6] 	0
scalar three_caches_scenario_3_links_network.node[6].content_store 	misses[6] 	10662
scalar three_caches_scenario_3_links_network.node[6].content_store 	decision_yes[6] 	0
scalar three_caches_scenario_3_links_network.node[6].content_store 	decision_no[6] 	10662
scalar three_caches_scenario_3_links_network.client[0] 	hdistance[0] 	0.55969047328277
scalar three_caches_scenario_3_links_network.client[0] 	downloads[0] 	180146
scalar three_caches_scenario_3_links_network.client[0] 	avg_time[0] 	0
scalar three_caches_scenario_3_links_network.client[0] 	interests_sent[0] 	180146
