version 2
run General-1659-20140504-19:37:53-19543
attr D costprob0.01
attr F nrr
attr R lru
attr a 1
attr configname General
attr csize 1e3
attr ctlg 1e5
attr datetime 20140504-19:37:53
attr experiment General
attr inifile omnetpp.ini
attr iterationvars "$net=one_cache_scenario_3_links, $rep=16, $priceratiovalue=2, $weights=0_0.5_0.5, $a=1, $ctlg=1e5, $F=nrr, $ttl=1000, $D=costprob0.01, $xi=2, $R=lru, $csize=1e3"
attr iterationvars2 "$net=one_cache_scenario_3_links, $rep=16, $priceratiovalue=2, $weights=0_0.5_0.5, $a=1, $ctlg=1e5, $F=nrr, $ttl=1000, $D=costprob0.01, $xi=2, $R=lru, $csize=1e3, $repetition=0"
attr measurement "$net=one_cache_scenario_3_links, $rep=16, $priceratiovalue=2, $weights=0_0.5_0.5, $a=1, $ctlg=1e5, $F=nrr, $ttl=1000, $D=costprob0.01, $xi=2, $R=lru, $csize=1e3"
attr net one_cache_scenario_3_links
attr network networks.${net=one_cache_scenario_3_links}_network
attr priceratiovalue 2
attr processid 19543
attr rep 16
attr repetition 0
attr replication #0
attr resultdir results
attr runnumber 1659
attr seedset 16
attr ttl 1000
attr weights 0_0.5_0.5
attr xi 2

scalar . 	a 	1
scalar . 	csize 	1e3
scalar . 	ctlg 	1e5
scalar . 	priceratiovalue 	2
scalar . 	rep 	16
scalar . 	ttl 	1000
scalar . 	xi 	2
scalar one_cache_scenario_3_links_network.content_distribution 	repo-0 	4
scalar one_cache_scenario_3_links_network.content_distribution 	repo-1 	5
scalar one_cache_scenario_3_links_network.content_distribution 	repo-2 	6
scalar one_cache_scenario_3_links_network.content_distribution 	client-0 	0
scalar one_cache_scenario_3_links_network.content_distribution 	repo-0_card 	0
scalar one_cache_scenario_3_links_network.content_distribution 	repo-1_card 	49894
scalar one_cache_scenario_3_links_network.content_distribution 	repo-2_card 	50106
scalar one_cache_scenario_3_links_network.statistics 	p_hit 	0.2781824358561
scalar one_cache_scenario_3_links_network.statistics 	interests 	49620.571428571
scalar one_cache_scenario_3_links_network.statistics 	data 	23878
scalar one_cache_scenario_3_links_network.statistics 	hdistance 	0.92756856346907
scalar one_cache_scenario_3_links_network.statistics 	avg_time 	0
scalar one_cache_scenario_3_links_network.statistics 	downloads 	180198
scalar one_cache_scenario_3_links_network.statistics 	total_cost 	123708
scalar one_cache_scenario_3_links_network.statistics 	total_replicas 	100000
scalar one_cache_scenario_3_links_network.statistics 	interests_sent 	180198
scalar one_cache_scenario_3_links_network.node[0].core_layer 	interests[0] 	180198
scalar one_cache_scenario_3_links_network.node[0].core_layer 	data[0] 	83573
scalar one_cache_scenario_3_links_network.node[0].core_layer 	repo_int[0] 	83573
scalar one_cache_scenario_3_links_network.node[0].content_store 	p_hit[0] 	0.53621571826546
scalar one_cache_scenario_3_links_network.node[0].content_store 	hits[0] 	96625
scalar one_cache_scenario_3_links_network.node[0].content_store 	misses[0] 	83573
scalar one_cache_scenario_3_links_network.node[0].content_store 	decision_yes[0] 	832
scalar one_cache_scenario_3_links_network.node[0].content_store 	decision_no[0] 	82741
scalar one_cache_scenario_3_links_network.node[1].core_layer 	interests[1] 	0
scalar one_cache_scenario_3_links_network.node[1].core_layer 	data[1] 	0
scalar one_cache_scenario_3_links_network.node[1].content_store 	p_hit[1] 	-nan
scalar one_cache_scenario_3_links_network.node[1].content_store 	hits[1] 	0
scalar one_cache_scenario_3_links_network.node[1].content_store 	misses[1] 	0
scalar one_cache_scenario_3_links_network.node[1].content_store 	decision_yes[1] 	0
scalar one_cache_scenario_3_links_network.node[1].content_store 	decision_no[1] 	0
scalar one_cache_scenario_3_links_network.node[2].core_layer 	interests[2] 	43438
scalar one_cache_scenario_3_links_network.node[2].core_layer 	data[2] 	43438
scalar one_cache_scenario_3_links_network.node[2].content_store 	p_hit[2] 	0
scalar one_cache_scenario_3_links_network.node[2].content_store 	hits[2] 	0
scalar one_cache_scenario_3_links_network.node[2].content_store 	misses[2] 	43438
scalar one_cache_scenario_3_links_network.node[2].content_store 	decision_yes[2] 	0
scalar one_cache_scenario_3_links_network.node[2].content_store 	decision_no[2] 	43438
scalar one_cache_scenario_3_links_network.node[3].core_layer 	interests[3] 	40135
scalar one_cache_scenario_3_links_network.node[3].core_layer 	data[3] 	40135
scalar one_cache_scenario_3_links_network.node[3].content_store 	p_hit[3] 	0
scalar one_cache_scenario_3_links_network.node[3].content_store 	hits[3] 	0
scalar one_cache_scenario_3_links_network.node[3].content_store 	misses[3] 	40135
scalar one_cache_scenario_3_links_network.node[3].content_store 	decision_yes[3] 	0
scalar one_cache_scenario_3_links_network.node[3].content_store 	decision_no[3] 	40135
scalar one_cache_scenario_3_links_network.node[4].core_layer 	interests[4] 	0
scalar one_cache_scenario_3_links_network.node[4].core_layer 	data[4] 	0
scalar one_cache_scenario_3_links_network.node[4].content_store 	p_hit[4] 	-nan
scalar one_cache_scenario_3_links_network.node[4].content_store 	hits[4] 	0
scalar one_cache_scenario_3_links_network.node[4].content_store 	misses[4] 	0
scalar one_cache_scenario_3_links_network.node[4].content_store 	decision_yes[4] 	0
scalar one_cache_scenario_3_links_network.node[4].content_store 	decision_no[4] 	0
scalar one_cache_scenario_3_links_network.node[5].core_layer 	interests[5] 	43438
scalar one_cache_scenario_3_links_network.node[5].core_layer 	repo_load[5] 	43438
scalar one_cache_scenario_3_links_network.node[5].core_layer 	data[5] 	0
scalar one_cache_scenario_3_links_network.node[5].content_store 	p_hit[5] 	0
scalar one_cache_scenario_3_links_network.node[5].content_store 	hits[5] 	0
scalar one_cache_scenario_3_links_network.node[5].content_store 	misses[5] 	43438
scalar one_cache_scenario_3_links_network.node[5].content_store 	decision_yes[5] 	0
scalar one_cache_scenario_3_links_network.node[5].content_store 	decision_no[5] 	43438
scalar one_cache_scenario_3_links_network.node[6].core_layer 	interests[6] 	40135
scalar one_cache_scenario_3_links_network.node[6].core_layer 	repo_load[6] 	40135
scalar one_cache_scenario_3_links_network.node[6].core_layer 	data[6] 	0
scalar one_cache_scenario_3_links_network.node[6].content_store 	p_hit[6] 	0
scalar one_cache_scenario_3_links_network.node[6].content_store 	hits[6] 	0
scalar one_cache_scenario_3_links_network.node[6].content_store 	misses[6] 	40135
scalar one_cache_scenario_3_links_network.node[6].content_store 	decision_yes[6] 	0
scalar one_cache_scenario_3_links_network.node[6].content_store 	decision_no[6] 	40135
scalar one_cache_scenario_3_links_network.client[0] 	hdistance[0] 	0.92756856346907
scalar one_cache_scenario_3_links_network.client[0] 	downloads[0] 	180198
scalar one_cache_scenario_3_links_network.client[0] 	avg_time[0] 	0
scalar one_cache_scenario_3_links_network.client[0] 	interests_sent[0] 	180198
