version 2
run General-1921-20140421-20:45:40-16711
attr D fix0.1
attr F nrr
attr R lru
attr a 0.8
attr configname General
attr csize 10
attr ctlg 10^3
attr datetime 20140421-20:45:40
attr experiment General
attr inifile omnetpp.ini
attr iterationvars "$net=simple_scenario, $rep=38, $priceratiovalue=1, $a=0.8, $ctlg=10^3, $F=nrr, $ttl=1000, $D=fix0.1, $R=lru, $csize=10"
attr iterationvars2 "$net=simple_scenario, $rep=38, $priceratiovalue=1, $a=0.8, $ctlg=10^3, $F=nrr, $ttl=1000, $D=fix0.1, $R=lru, $csize=10, $repetition=0"
attr measurement "$net=simple_scenario, $rep=38, $priceratiovalue=1, $a=0.8, $ctlg=10^3, $F=nrr, $ttl=1000, $D=fix0.1, $R=lru, $csize=10"
attr net simple_scenario
attr network networks.${net=simple_scenario}_network
attr priceratiovalue 1
attr processid 16711
attr rep 38
attr repetition 0
attr replication #0
attr resultdir results
attr runnumber 1921
attr seedset 38
attr ttl 1000

scalar . 	a 	0.8
scalar . 	csize 	10
scalar . 	priceratiovalue 	1
scalar . 	rep 	38
scalar . 	ttl 	1000
scalar simple_scenario_network.content_distribution 	repo-0 	3
scalar simple_scenario_network.content_distribution 	repo-1 	4
scalar simple_scenario_network.content_distribution 	client-0 	0
scalar simple_scenario_network.content_distribution 	repo-0_card 	494
scalar simple_scenario_network.content_distribution 	repo-1_card 	506
scalar simple_scenario_network.statistics 	p_hit 	0.080665882717263
scalar simple_scenario_network.statistics 	interests 	95584.4
scalar simple_scenario_network.statistics 	data 	59638.6
scalar simple_scenario_network.statistics 	hdistance 	2.4446249631389
scalar simple_scenario_network.statistics 	avg_time 	0.001997931207
scalar simple_scenario_network.statistics 	downloads 	179729
scalar simple_scenario_network.statistics 	total_cost 	70588
scalar simple_scenario_network.node[0].core_layer 	interests[0] 	179729
scalar simple_scenario_network.node[0].core_layer 	data[0] 	157016
scalar simple_scenario_network.node[0].core_layer 	repo_int[0] 	141177
scalar simple_scenario_network.node[0].content_store 	p_hit[0] 	0.12637359580257
scalar simple_scenario_network.node[0].content_store 	hits[0] 	22713
scalar simple_scenario_network.node[0].content_store 	misses[0] 	157016
scalar simple_scenario_network.node[1].core_layer 	interests[1] 	70338
scalar simple_scenario_network.node[1].core_layer 	data[1] 	63491
scalar simple_scenario_network.node[1].content_store 	p_hit[1] 	0.097344252040149
scalar simple_scenario_network.node[1].content_store 	hits[1] 	6847
scalar simple_scenario_network.node[1].content_store 	misses[1] 	63491
scalar simple_scenario_network.node[2].core_layer 	interests[2] 	86678
scalar simple_scenario_network.node[2].core_layer 	data[2] 	77686
scalar simple_scenario_network.node[2].content_store 	p_hit[2] 	0.10374028011722
scalar simple_scenario_network.node[2].content_store 	hits[2] 	8992
scalar simple_scenario_network.node[2].content_store 	misses[2] 	77686
scalar simple_scenario_network.node[3].core_layer 	interests[3] 	63491
scalar simple_scenario_network.node[3].core_layer 	repo_load[3] 	63491
scalar simple_scenario_network.node[3].core_layer 	data[3] 	0
scalar simple_scenario_network.node[3].content_store 	p_hit[3] 	0
scalar simple_scenario_network.node[3].content_store 	hits[3] 	0
scalar simple_scenario_network.node[3].content_store 	misses[3] 	63491
scalar simple_scenario_network.node[4].core_layer 	interests[4] 	77686
scalar simple_scenario_network.node[4].core_layer 	repo_load[4] 	77686
scalar simple_scenario_network.node[4].core_layer 	data[4] 	0
scalar simple_scenario_network.node[4].content_store 	p_hit[4] 	0
scalar simple_scenario_network.node[4].content_store 	hits[4] 	0
scalar simple_scenario_network.node[4].content_store 	misses[4] 	77686
scalar simple_scenario_network.client[0] 	hdistance[0] 	2.4446249631389
scalar simple_scenario_network.client[0] 	downloads[0] 	179729
scalar simple_scenario_network.client[0] 	avg_time[0] 	0.001997931207
