version 2
run General-238-20140502-11:29:32-15242
attr D costprob0.005
attr F nrr
attr R lru
attr a 1
attr configname General
attr csize 1e3
attr ctlg 1e5
attr datetime 20140502-11:29:32
attr experiment General
attr inifile omnetpp.ini
attr iterationvars "$net=three_caches_scenario_3_links, $rep=2, $priceratiovalue=5, $weights=0.333_0.333_0.334, $a=1, $ctlg=1e5, $F=nrr, $ttl=1000, $D=costprob0.005, $xi=1, $R=lru, $csize=1e3"
attr iterationvars2 "$net=three_caches_scenario_3_links, $rep=2, $priceratiovalue=5, $weights=0.333_0.333_0.334, $a=1, $ctlg=1e5, $F=nrr, $ttl=1000, $D=costprob0.005, $xi=1, $R=lru, $csize=1e3, $repetition=0"
attr measurement "$net=three_caches_scenario_3_links, $rep=2, $priceratiovalue=5, $weights=0.333_0.333_0.334, $a=1, $ctlg=1e5, $F=nrr, $ttl=1000, $D=costprob0.005, $xi=1, $R=lru, $csize=1e3"
attr net three_caches_scenario_3_links
attr network networks.${net=three_caches_scenario_3_links}_network
attr priceratiovalue 5
attr processid 15242
attr rep 2
attr repetition 0
attr replication #0
attr resultdir results
attr runnumber 238
attr seedset 2
attr ttl 1000
attr weights 0.333_0.333_0.334
attr xi 1

scalar . 	a 	1
scalar . 	csize 	1e3
scalar . 	ctlg 	1e5
scalar . 	priceratiovalue 	5
scalar . 	rep 	2
scalar . 	ttl 	1000
scalar . 	xi 	1
scalar three_caches_scenario_3_links_network.content_distribution 	repo-0 	4
scalar three_caches_scenario_3_links_network.content_distribution 	repo-1 	5
scalar three_caches_scenario_3_links_network.content_distribution 	repo-2 	6
scalar three_caches_scenario_3_links_network.content_distribution 	client-0 	0
scalar three_caches_scenario_3_links_network.content_distribution 	repo-0_card 	33264
scalar three_caches_scenario_3_links_network.content_distribution 	repo-1_card 	33272
scalar three_caches_scenario_3_links_network.content_distribution 	repo-2_card 	33464
scalar three_caches_scenario_3_links_network.statistics 	p_hit 	0.13155897910108
scalar three_caches_scenario_3_links_network.statistics 	interests 	64576.142857143
scalar three_caches_scenario_3_links_network.statistics 	data 	38937.428571429
scalar three_caches_scenario_3_links_network.statistics 	hdistance 	1.7895927475748
scalar three_caches_scenario_3_links_network.statistics 	avg_time 	0
scalar three_caches_scenario_3_links_network.statistics 	downloads 	179471
scalar three_caches_scenario_3_links_network.statistics 	total_cost 	139066
scalar three_caches_scenario_3_links_network.statistics 	total_replicas 	100000
scalar three_caches_scenario_3_links_network.statistics 	interests_sent 	179471
scalar three_caches_scenario_3_links_network.node[0].core_layer 	interests[0] 	179471
scalar three_caches_scenario_3_links_network.node[0].core_layer 	data[0] 	152560
scalar three_caches_scenario_3_links_network.node[0].core_layer 	repo_int[0] 	120002
scalar three_caches_scenario_3_links_network.node[0].content_store 	p_hit[0] 	0.14994623086738
scalar three_caches_scenario_3_links_network.node[0].content_store 	hits[0] 	26911
scalar three_caches_scenario_3_links_network.node[0].content_store 	misses[0] 	152560
scalar three_caches_scenario_3_links_network.node[0].content_store 	decision_yes[0] 	372
scalar three_caches_scenario_3_links_network.node[0].content_store 	decision_no[0] 	152188
scalar three_caches_scenario_3_links_network.node[1].core_layer 	interests[1] 	71384
scalar three_caches_scenario_3_links_network.node[1].core_layer 	data[1] 	71384
scalar three_caches_scenario_3_links_network.node[1].content_store 	p_hit[1] 	0
scalar three_caches_scenario_3_links_network.node[1].content_store 	hits[1] 	0
scalar three_caches_scenario_3_links_network.node[1].content_store 	misses[1] 	71384
scalar three_caches_scenario_3_links_network.node[1].content_store 	decision_yes[1] 	0
scalar three_caches_scenario_3_links_network.node[1].content_store 	decision_no[1] 	71384
scalar three_caches_scenario_3_links_network.node[2].core_layer 	interests[2] 	38717
scalar three_caches_scenario_3_links_network.node[2].core_layer 	data[2] 	26006
scalar three_caches_scenario_3_links_network.node[2].content_store 	p_hit[2] 	0.32830539556267
scalar three_caches_scenario_3_links_network.node[2].content_store 	hits[2] 	12711
scalar three_caches_scenario_3_links_network.node[2].content_store 	misses[2] 	26006
scalar three_caches_scenario_3_links_network.node[2].content_store 	decision_yes[2] 	65
scalar three_caches_scenario_3_links_network.node[2].content_store 	decision_no[2] 	25941
scalar three_caches_scenario_3_links_network.node[3].core_layer 	interests[3] 	42459
scalar three_caches_scenario_3_links_network.node[3].core_layer 	data[3] 	22612
scalar three_caches_scenario_3_links_network.node[3].content_store 	p_hit[3] 	0.46743917661744
scalar three_caches_scenario_3_links_network.node[3].content_store 	hits[3] 	19847
scalar three_caches_scenario_3_links_network.node[3].content_store 	misses[3] 	22612
scalar three_caches_scenario_3_links_network.node[3].content_store 	decision_yes[3] 	274
scalar three_caches_scenario_3_links_network.node[3].content_store 	decision_no[3] 	22338
scalar three_caches_scenario_3_links_network.node[4].core_layer 	interests[4] 	71384
scalar three_caches_scenario_3_links_network.node[4].core_layer 	repo_load[4] 	71384
scalar three_caches_scenario_3_links_network.node[4].core_layer 	data[4] 	0
scalar three_caches_scenario_3_links_network.node[4].content_store 	p_hit[4] 	0
scalar three_caches_scenario_3_links_network.node[4].content_store 	hits[4] 	0
scalar three_caches_scenario_3_links_network.node[4].content_store 	misses[4] 	71384
scalar three_caches_scenario_3_links_network.node[4].content_store 	decision_yes[4] 	0
scalar three_caches_scenario_3_links_network.node[4].content_store 	decision_no[4] 	71384
scalar three_caches_scenario_3_links_network.node[5].core_layer 	interests[5] 	26006
scalar three_caches_scenario_3_links_network.node[5].core_layer 	repo_load[5] 	26006
scalar three_caches_scenario_3_links_network.node[5].core_layer 	data[5] 	0
scalar three_caches_scenario_3_links_network.node[5].content_store 	p_hit[5] 	0
scalar three_caches_scenario_3_links_network.node[5].content_store 	hits[5] 	0
scalar three_caches_scenario_3_links_network.node[5].content_store 	misses[5] 	26006
scalar three_caches_scenario_3_links_network.node[5].content_store 	decision_yes[5] 	0
scalar three_caches_scenario_3_links_network.node[5].content_store 	decision_no[5] 	26006
scalar three_caches_scenario_3_links_network.node[6].core_layer 	interests[6] 	22612
scalar three_caches_scenario_3_links_network.node[6].core_layer 	repo_load[6] 	22612
scalar three_caches_scenario_3_links_network.node[6].core_layer 	data[6] 	0
scalar three_caches_scenario_3_links_network.node[6].content_store 	p_hit[6] 	0
scalar three_caches_scenario_3_links_network.node[6].content_store 	hits[6] 	0
scalar three_caches_scenario_3_links_network.node[6].content_store 	misses[6] 	22612
scalar three_caches_scenario_3_links_network.node[6].content_store 	decision_yes[6] 	0
scalar three_caches_scenario_3_links_network.node[6].content_store 	decision_no[6] 	22612
scalar three_caches_scenario_3_links_network.client[0] 	hdistance[0] 	1.7895927475748
scalar three_caches_scenario_3_links_network.client[0] 	downloads[0] 	179471
scalar three_caches_scenario_3_links_network.client[0] 	avg_time[0] 	0
scalar three_caches_scenario_3_links_network.client[0] 	interests_sent[0] 	179471
