version 2
run General-1230-20140422-20:04:50-28057
attr D lce
attr F nrr
attr R lru
attr a 1.2
attr configname General
attr csize 10
attr ctlg 10^3
attr datetime 20140422-20:04:50
attr experiment General
attr inifile omnetpp.ini
attr iterationvars "$net=simple_scenario, $rep=11, $priceratiovalue=3, $a=1.2, $ctlg=10^3, $F=nrr, $ttl=1000, $D=lce, $R=lru, $csize=10"
attr iterationvars2 "$net=simple_scenario, $rep=11, $priceratiovalue=3, $a=1.2, $ctlg=10^3, $F=nrr, $ttl=1000, $D=lce, $R=lru, $csize=10, $repetition=0"
attr measurement "$net=simple_scenario, $rep=11, $priceratiovalue=3, $a=1.2, $ctlg=10^3, $F=nrr, $ttl=1000, $D=lce, $R=lru, $csize=10"
attr net simple_scenario
attr network networks.${net=simple_scenario}_network
attr priceratiovalue 3
attr processid 28057
attr rep 11
attr repetition 0
attr replication #0
attr resultdir results
attr runnumber 1230
attr seedset 11
attr ttl 1000

scalar . 	a 	1.2
scalar . 	csize 	10
scalar . 	priceratiovalue 	3
scalar . 	rep 	11
scalar . 	ttl 	1000
scalar simple_scenario_network.content_distribution 	repo-0 	3
scalar simple_scenario_network.content_distribution 	repo-1 	4
scalar simple_scenario_network.content_distribution 	client-0 	0
scalar simple_scenario_network.content_distribution 	repo-0_card 	503
scalar simple_scenario_network.content_distribution 	repo-1_card 	497
scalar simple_scenario_network.statistics 	p_hit 	0.23963083547203
scalar simple_scenario_network.statistics 	interests 	75435.2
scalar simple_scenario_network.statistics 	data 	39423.8
scalar simple_scenario_network.statistics 	hdistance 	1.5927900609251
scalar simple_scenario_network.statistics 	avg_time 	0.001986112822
scalar simple_scenario_network.statistics 	downloads 	180057
scalar simple_scenario_network.statistics 	total_cost 	48039
scalar simple_scenario_network.node[0].core_layer 	interests[0] 	180057
scalar simple_scenario_network.node[0].core_layer 	data[0] 	107445
scalar simple_scenario_network.node[0].core_layer 	repo_int[0] 	89674
scalar simple_scenario_network.node[0].content_store 	p_hit[0] 	0.40327229710592
scalar simple_scenario_network.node[0].content_store 	hits[0] 	72612
scalar simple_scenario_network.node[0].content_store 	misses[0] 	107445
scalar simple_scenario_network.node[1].core_layer 	interests[1] 	46214
scalar simple_scenario_network.node[1].core_layer 	data[1] 	38431
scalar simple_scenario_network.node[1].content_store 	p_hit[1] 	0.16841216947245
scalar simple_scenario_network.node[1].content_store 	hits[1] 	7783
scalar simple_scenario_network.node[1].content_store 	misses[1] 	38431
scalar simple_scenario_network.node[2].core_layer 	interests[2] 	61231
scalar simple_scenario_network.node[2].core_layer 	data[2] 	51243
scalar simple_scenario_network.node[2].content_store 	p_hit[2] 	0.16311998824125
scalar simple_scenario_network.node[2].content_store 	hits[2] 	9988
scalar simple_scenario_network.node[2].content_store 	misses[2] 	51243
scalar simple_scenario_network.node[3].core_layer 	interests[3] 	38431
scalar simple_scenario_network.node[3].core_layer 	repo_load[3] 	38431
scalar simple_scenario_network.node[3].core_layer 	data[3] 	0
scalar simple_scenario_network.node[3].content_store 	p_hit[3] 	0
scalar simple_scenario_network.node[3].content_store 	hits[3] 	0
scalar simple_scenario_network.node[3].content_store 	misses[3] 	38431
scalar simple_scenario_network.node[4].core_layer 	interests[4] 	51243
scalar simple_scenario_network.node[4].core_layer 	repo_load[4] 	51243
scalar simple_scenario_network.node[4].core_layer 	data[4] 	0
scalar simple_scenario_network.node[4].content_store 	p_hit[4] 	0
scalar simple_scenario_network.node[4].content_store 	hits[4] 	0
scalar simple_scenario_network.node[4].content_store 	misses[4] 	51243
scalar simple_scenario_network.client[0] 	hdistance[0] 	1.5927900609251
scalar simple_scenario_network.client[0] 	downloads[0] 	180057
scalar simple_scenario_network.client[0] 	avg_time[0] 	0.001986112822
