version 2
run General-0-20140625-10:36:56-12018
attr D lce
attr F nrr
attr R lru
attr a 1
attr configname General
attr csize 1e3
attr ctlg 1e5
attr datetime 20140625-10:36:56
attr experiment General
attr inifile omnetpp.ini
attr iterationvars "$net=abilene_cost, $rep=1, $priceratiovalue=10, $weights=0.333_0.333_0.334, $lambda=100, $a=1, $ctlg=1e5, $F=nrr, $ttl=1000, $D=lce, $xi=1, $R=lru, $csize=1e3, $pricebits=0, $mytime=1800"
attr iterationvars2 "$net=abilene_cost, $rep=1, $priceratiovalue=10, $weights=0.333_0.333_0.334, $lambda=100, $a=1, $ctlg=1e5, $F=nrr, $ttl=1000, $D=lce, $xi=1, $R=lru, $csize=1e3, $pricebits=0, $mytime=1800, $repetition=0"
attr lambda 100
attr measurement "$net=abilene_cost, $rep=1, $priceratiovalue=10, $weights=0.333_0.333_0.334, $lambda=100, $a=1, $ctlg=1e5, $F=nrr, $ttl=1000, $D=lce, $xi=1, $R=lru, $csize=1e3, $pricebits=0, $mytime=1800"
attr mytime 1800
attr net abilene_cost
attr network networks.${net=abilene_cost}_network
attr pricebits 0
attr priceratiovalue 10
attr processid 12018
attr rep 1
attr repetition 0
attr replication #0
attr resultdir results
attr runnumber 0
attr seedset 1
attr ttl 1000
attr weights 0.333_0.333_0.334
attr xi 1

scalar . 	a 	1
scalar . 	csize 	1e3
scalar . 	ctlg 	1e5
scalar . 	lambda 	100
scalar . 	mytime 	1800
scalar . 	pricebits 	0
scalar . 	priceratiovalue 	10
scalar . 	rep 	1
scalar . 	ttl 	1000
scalar . 	xi 	1
scalar abilene_cost_network.content_distribution 	repo-0 	11
scalar abilene_cost_network.content_distribution 	repo-1 	12
scalar abilene_cost_network.content_distribution 	repo-2 	13
scalar abilene_cost_network.content_distribution 	client-0 	5
scalar abilene_cost_network.content_distribution 	client-1 	0
scalar abilene_cost_network.content_distribution 	client-2 	9
scalar abilene_cost_network.content_distribution 	repo-0_card 	33396
scalar abilene_cost_network.content_distribution 	repo-1_card 	33039
scalar abilene_cost_network.content_distribution 	repo-2_card 	33565
scalar abilene_cost_network.statistics 	repo_popularity[0] 	0.28686251265602
scalar abilene_cost_network.statistics 	repo_popularity[1] 	0.2886063426465
scalar abilene_cost_network.statistics 	repo_popularity[2] 	0.42453114469748
scalar abilene_cost_network.statistics 	stabilization_time 	64
scalar abilene_cost_network.node[1].face$o[4].channel 	price[1] 	0
scalar abilene_cost_network.node[1].face$o[4].channel 	represented_price[1] 	0
scalar abilene_cost_network.node[7].face$o[4].channel 	price[7] 	0
scalar abilene_cost_network.node[7].face$o[4].channel 	represented_price[7] 	0
scalar abilene_cost_network.node[10].face$o[4].channel 	price[10] 	0
scalar abilene_cost_network.node[10].face$o[4].channel 	represented_price[10] 	0
scalar abilene_cost_network.node[11].face$o[1].channel 	price[11] 	0
scalar abilene_cost_network.node[11].face$o[1].channel 	represented_price[11] 	0
scalar abilene_cost_network.node[12].face$o[1].channel 	price[12] 	1
scalar abilene_cost_network.node[12].face$o[1].channel 	represented_price[12] 	1
scalar abilene_cost_network.node[13].face$o[1].channel 	price[13] 	10
scalar abilene_cost_network.node[13].face$o[1].channel 	represented_price[13] 	10
scalar abilene_cost_network.statistics 	p_hit 	0.12582424347929
scalar abilene_cost_network.statistics 	interests 	16822.785714286
scalar abilene_cost_network.statistics 	data 	11686.428571429
scalar abilene_cost_network.statistics 	hdistance 	2.8652411185652
scalar abilene_cost_network.statistics 	avg_time 	0.01108163186
scalar abilene_cost_network.statistics 	downloads 	71827
scalar abilene_cost_network.statistics 	total_cost 	157503
scalar abilene_cost_network.statistics 	total_replicas 	100000
scalar abilene_cost_network.statistics 	inner_hit 	0.41258858089576
scalar abilene_cost_network.statistics 	interests_sent 	71905
scalar abilene_cost_network.node[0].core_layer 	interests[0] 	24581
scalar abilene_cost_network.node[0].core_layer 	data[0] 	17055
scalar abilene_cost_network.node[0].core_layer 	repo_int[0] 	42192
scalar abilene_cost_network.node[0].content_store 	p_hit[0] 	0.30515438753509
scalar abilene_cost_network.node[0].content_store 	hits[0] 	7501
scalar abilene_cost_network.node[0].content_store 	misses[0] 	17080
scalar abilene_cost_network.node[0].content_store 	decision_yes[0] 	17055
scalar abilene_cost_network.node[0].content_store 	decision_no[0] 	0
scalar abilene_cost_network.node[0].content_store 	decision_ratio[0] 	1
scalar abilene_cost_network.node[1].core_layer 	interests[1] 	25659
scalar abilene_cost_network.node[1].core_layer 	data[1] 	25141
scalar abilene_cost_network.node[1].content_store 	p_hit[1] 	0.020148875638178
scalar abilene_cost_network.node[1].content_store 	hits[1] 	517
scalar abilene_cost_network.node[1].content_store 	misses[1] 	25142
scalar abilene_cost_network.node[1].content_store 	decision_yes[1] 	25137
scalar abilene_cost_network.node[1].content_store 	decision_no[1] 	0
scalar abilene_cost_network.node[1].content_store 	decision_ratio[1] 	1
scalar abilene_cost_network.node[2].core_layer 	interests[2] 	16073
scalar abilene_cost_network.node[2].core_layer 	data[2] 	15602
scalar abilene_cost_network.node[2].content_store 	p_hit[2] 	0.029303801406085
scalar abilene_cost_network.node[2].content_store 	hits[2] 	471
scalar abilene_cost_network.node[2].content_store 	misses[2] 	15602
scalar abilene_cost_network.node[2].content_store 	decision_yes[2] 	15596
scalar abilene_cost_network.node[2].content_store 	decision_no[2] 	0
scalar abilene_cost_network.node[2].content_store 	decision_ratio[2] 	1
scalar abilene_cost_network.node[3].core_layer 	interests[3] 	14958
scalar abilene_cost_network.node[3].core_layer 	data[3] 	14833
scalar abilene_cost_network.node[3].content_store 	p_hit[3] 	0.008356732183447
scalar abilene_cost_network.node[3].content_store 	hits[3] 	125
scalar abilene_cost_network.node[3].content_store 	misses[3] 	14833
scalar abilene_cost_network.node[3].content_store 	decision_yes[3] 	14832
scalar abilene_cost_network.node[3].content_store 	decision_no[3] 	0
scalar abilene_cost_network.node[3].content_store 	decision_ratio[3] 	1
scalar abilene_cost_network.node[4].core_layer 	interests[4] 	10550
scalar abilene_cost_network.node[4].core_layer 	data[4] 	10150
scalar abilene_cost_network.node[4].content_store 	p_hit[4] 	0.03781990521327
scalar abilene_cost_network.node[4].content_store 	hits[4] 	399
scalar abilene_cost_network.node[4].content_store 	misses[4] 	10151
scalar abilene_cost_network.node[4].content_store 	decision_yes[4] 	10150
scalar abilene_cost_network.node[4].content_store 	decision_no[4] 	0
scalar abilene_cost_network.node[4].content_store 	decision_ratio[4] 	1
scalar abilene_cost_network.node[5].core_layer 	interests[5] 	23970
scalar abilene_cost_network.node[5].core_layer 	data[5] 	17135
scalar abilene_cost_network.node[5].content_store 	p_hit[5] 	0.28393825615353
scalar abilene_cost_network.node[5].content_store 	hits[5] 	6806
scalar abilene_cost_network.node[5].content_store 	misses[5] 	17164
scalar abilene_cost_network.node[5].content_store 	decision_yes[5] 	17135
scalar abilene_cost_network.node[5].content_store 	decision_no[5] 	0
scalar abilene_cost_network.node[5].content_store 	decision_ratio[5] 	1
scalar abilene_cost_network.node[6].core_layer 	interests[6] 	7260
scalar abilene_cost_network.node[6].core_layer 	data[6] 	5538
scalar abilene_cost_network.node[6].content_store 	p_hit[6] 	0.23719008264463
scalar abilene_cost_network.node[6].content_store 	hits[6] 	1722
scalar abilene_cost_network.node[6].content_store 	misses[6] 	5538
scalar abilene_cost_network.node[6].content_store 	decision_yes[6] 	5538
scalar abilene_cost_network.node[6].content_store 	decision_no[6] 	0
scalar abilene_cost_network.node[6].content_store 	decision_ratio[6] 	1
scalar abilene_cost_network.node[7].core_layer 	interests[7] 	15060
scalar abilene_cost_network.node[7].core_layer 	data[7] 	14562
scalar abilene_cost_network.node[7].content_store 	p_hit[7] 	0.032868525896414
scalar abilene_cost_network.node[7].content_store 	hits[7] 	495
scalar abilene_cost_network.node[7].content_store 	misses[7] 	14565
scalar abilene_cost_network.node[7].content_store 	decision_yes[7] 	14554
scalar abilene_cost_network.node[7].content_store 	decision_no[7] 	0
scalar abilene_cost_network.node[7].content_store 	decision_ratio[7] 	1
scalar abilene_cost_network.node[8].core_layer 	interests[8] 	8212
scalar abilene_cost_network.node[8].core_layer 	data[8] 	5660
scalar abilene_cost_network.node[8].content_store 	p_hit[8] 	0.31076473453483
scalar abilene_cost_network.node[8].content_store 	hits[8] 	2552
scalar abilene_cost_network.node[8].content_store 	misses[8] 	5660
scalar abilene_cost_network.node[8].content_store 	decision_yes[8] 	5659
scalar abilene_cost_network.node[8].content_store 	decision_no[8] 	0
scalar abilene_cost_network.node[8].content_store 	decision_ratio[8] 	1
scalar abilene_cost_network.node[9].core_layer 	interests[9] 	25388
scalar abilene_cost_network.node[9].core_layer 	data[9] 	16994
scalar abilene_cost_network.node[9].content_store 	p_hit[9] 	0.32968331495195
scalar abilene_cost_network.node[9].content_store 	hits[9] 	8370
scalar abilene_cost_network.node[9].content_store 	misses[9] 	17018
scalar abilene_cost_network.node[9].content_store 	decision_yes[9] 	16993
scalar abilene_cost_network.node[9].content_store 	decision_no[9] 	0
scalar abilene_cost_network.node[9].content_store 	decision_ratio[9] 	1
scalar abilene_cost_network.node[10].core_layer 	interests[10] 	21616
scalar abilene_cost_network.node[10].core_layer 	data[10] 	20940
scalar abilene_cost_network.node[10].content_store 	p_hit[10] 	0.031273131014064
scalar abilene_cost_network.node[10].content_store 	hits[10] 	676
scalar abilene_cost_network.node[10].content_store 	misses[10] 	20940
scalar abilene_cost_network.node[10].content_store 	decision_yes[10] 	20936
scalar abilene_cost_network.node[10].content_store 	decision_no[10] 	0
scalar abilene_cost_network.node[10].content_store 	decision_ratio[10] 	1
scalar abilene_cost_network.node[11].core_layer 	interests[11] 	14712
scalar abilene_cost_network.node[11].core_layer 	repo_load[11] 	14712
scalar abilene_cost_network.node[11].core_layer 	data[11] 	0
scalar abilene_cost_network.node[11].content_store 	p_hit[11] 	0
scalar abilene_cost_network.node[11].content_store 	hits[11] 	0
scalar abilene_cost_network.node[11].content_store 	misses[11] 	14712
scalar abilene_cost_network.node[11].content_store 	decision_yes[11] 	0
scalar abilene_cost_network.node[11].content_store 	decision_no[11] 	14712
scalar abilene_cost_network.node[11].content_store 	decision_ratio[11] 	0
scalar abilene_cost_network.node[12].core_layer 	interests[12] 	13033
scalar abilene_cost_network.node[12].core_layer 	repo_load[12] 	13033
scalar abilene_cost_network.node[12].core_layer 	data[12] 	0
scalar abilene_cost_network.node[12].content_store 	p_hit[12] 	0
scalar abilene_cost_network.node[12].content_store 	hits[12] 	0
scalar abilene_cost_network.node[12].content_store 	misses[12] 	13033
scalar abilene_cost_network.node[12].content_store 	decision_yes[12] 	0
scalar abilene_cost_network.node[12].content_store 	decision_no[12] 	13033
scalar abilene_cost_network.node[12].content_store 	decision_ratio[12] 	0
scalar abilene_cost_network.node[13].core_layer 	interests[13] 	14447
scalar abilene_cost_network.node[13].core_layer 	repo_load[13] 	14447
scalar abilene_cost_network.node[13].core_layer 	data[13] 	0
scalar abilene_cost_network.node[13].content_store 	p_hit[13] 	0
scalar abilene_cost_network.node[13].content_store 	hits[13] 	0
scalar abilene_cost_network.node[13].content_store 	misses[13] 	14447
scalar abilene_cost_network.node[13].content_store 	decision_yes[13] 	0
scalar abilene_cost_network.node[13].content_store 	decision_no[13] 	14447
scalar abilene_cost_network.node[13].content_store 	decision_ratio[13] 	0
scalar abilene_cost_network.client[0] 	hdistance[0] 	2.6089674139512
scalar abilene_cost_network.client[0] 	downloads[0] 	23998
scalar abilene_cost_network.client[0] 	avg_time[0] 	0.010605668738
scalar abilene_cost_network.client[0] 	interests_sent[0] 	24023
scalar abilene_cost_network.client[5] 	hdistance[5] 	3.6473247927656
scalar abilene_cost_network.client[5] 	downloads[5] 	23886
scalar abilene_cost_network.client[5] 	avg_time[5] 	0.013275008494
scalar abilene_cost_network.client[5] 	interests_sent[5] 	23915
scalar abilene_cost_network.client[9] 	hdistance[9] 	2.3394311489788
scalar abilene_cost_network.client[9] 	downloads[9] 	23943
scalar abilene_cost_network.client[9] 	avg_time[9] 	0.009364218348
scalar abilene_cost_network.client[9] 	interests_sent[9] 	23967
