version 2
run General-0-20140623-17:31:21-5478
attr D lce
attr F nrr
attr R lru
attr a 1
attr configname General
attr csize 1e3
attr ctlg 1e5
attr datetime 20140623-17:31:21
attr experiment General
attr inifile omnetpp.ini
attr iterationvars "$net=abilene_cost, $rep=1, $priceratiovalue=10, $weights=0.333_0.333_0.334, $lambda=100, $a=1, $ctlg=1e5, $F=nrr, $ttl=1000, $D=lce, $xi=1, $R=lru, $csize=1e3, $pricebits=0, $mytime=1800"
attr iterationvars2 "$net=abilene_cost, $rep=1, $priceratiovalue=10, $weights=0.333_0.333_0.334, $lambda=100, $a=1, $ctlg=1e5, $F=nrr, $ttl=1000, $D=lce, $xi=1, $R=lru, $csize=1e3, $pricebits=0, $mytime=1800, $repetition=0"
attr lambda 100
attr measurement "$net=abilene_cost, $rep=1, $priceratiovalue=10, $weights=0.333_0.333_0.334, $lambda=100, $a=1, $ctlg=1e5, $F=nrr, $ttl=1000, $D=lce, $xi=1, $R=lru, $csize=1e3, $pricebits=0, $mytime=1800"
attr mytime 1800
attr net abilene_cost
attr network networks.${net=abilene_cost}_network
attr pricebits 0
attr priceratiovalue 10
attr processid 5478
attr rep 1
attr repetition 0
attr replication #0
attr resultdir results
attr runnumber 0
attr seedset 1
attr ttl 1000
attr weights 0.333_0.333_0.334
attr xi 1

scalar . 	a 	1
scalar . 	csize 	1e3
scalar . 	ctlg 	1e5
scalar . 	lambda 	100
scalar . 	mytime 	1800
scalar . 	pricebits 	0
scalar . 	priceratiovalue 	10
scalar . 	rep 	1
scalar . 	ttl 	1000
scalar . 	xi 	1
scalar abilene_cost_network.content_distribution 	repo-0 	11
scalar abilene_cost_network.content_distribution 	repo-1 	12
scalar abilene_cost_network.content_distribution 	repo-2 	13
scalar abilene_cost_network.content_distribution 	client-0 	5
scalar abilene_cost_network.content_distribution 	client-1 	0
scalar abilene_cost_network.content_distribution 	client-2 	9
scalar abilene_cost_network.content_distribution 	repo-0_card 	33396
scalar abilene_cost_network.content_distribution 	repo-1_card 	33039
scalar abilene_cost_network.content_distribution 	repo-2_card 	33565
scalar abilene_cost_network.statistics 	repo_popularity[0] 	0.28686251265602
scalar abilene_cost_network.statistics 	repo_popularity[1] 	0.2886063426465
scalar abilene_cost_network.statistics 	repo_popularity[2] 	0.42453114469748
scalar abilene_cost_network.statistics 	stabilization_time 	64
scalar abilene_cost_network.node[1].face$o[4].channel 	price[1] 	0
scalar abilene_cost_network.node[1].face$o[4].channel 	represented_price[1] 	0
scalar abilene_cost_network.node[7].face$o[4].channel 	price[7] 	0
scalar abilene_cost_network.node[7].face$o[4].channel 	represented_price[7] 	0
scalar abilene_cost_network.node[10].face$o[4].channel 	price[10] 	0
scalar abilene_cost_network.node[10].face$o[4].channel 	represented_price[10] 	0
scalar abilene_cost_network.node[11].face$o[1].channel 	price[11] 	0
scalar abilene_cost_network.node[11].face$o[1].channel 	represented_price[11] 	0
scalar abilene_cost_network.node[12].face$o[1].channel 	price[12] 	1
scalar abilene_cost_network.node[12].face$o[1].channel 	represented_price[12] 	1
scalar abilene_cost_network.node[13].face$o[1].channel 	price[13] 	10
scalar abilene_cost_network.node[13].face$o[1].channel 	represented_price[13] 	10
scalar abilene_cost_network.statistics 	p_hit 	0.1245500530277
scalar abilene_cost_network.statistics 	interests 	126820.5
scalar abilene_cost_network.statistics 	data 	88262.357142857
scalar abilene_cost_network.statistics 	hdistance 	2.8791483143202
scalar abilene_cost_network.statistics 	avg_time 	3.86e-09
scalar abilene_cost_network.statistics 	downloads 	539814
scalar abilene_cost_network.statistics 	total_cost 	1188134
scalar abilene_cost_network.statistics 	total_replicas 	100000
scalar abilene_cost_network.statistics 	inner_hit 	0.40965406603015
scalar abilene_cost_network.statistics 	interests_sent 	539814
scalar abilene_cost_network.node[0].core_layer 	interests[0] 	184259
scalar abilene_cost_network.node[0].core_layer 	data[0] 	128958
scalar abilene_cost_network.node[0].core_layer 	repo_int[0] 	318677
scalar abilene_cost_network.node[0].content_store 	p_hit[0] 	0.30012645243923
scalar abilene_cost_network.node[0].content_store 	hits[0] 	55301
scalar abilene_cost_network.node[0].content_store 	misses[0] 	128958
scalar abilene_cost_network.node[0].content_store 	decision_yes[0] 	128958
scalar abilene_cost_network.node[0].content_store 	decision_no[0] 	0
scalar abilene_cost_network.node[0].content_store 	decision_ratio[0] 	1
scalar abilene_cost_network.node[1].core_layer 	interests[1] 	193922
scalar abilene_cost_network.node[1].core_layer 	data[1] 	190117
scalar abilene_cost_network.node[1].content_store 	p_hit[1] 	0.01962129103454
scalar abilene_cost_network.node[1].content_store 	hits[1] 	3805
scalar abilene_cost_network.node[1].content_store 	misses[1] 	190117
scalar abilene_cost_network.node[1].content_store 	decision_yes[1] 	190117
scalar abilene_cost_network.node[1].content_store 	decision_no[1] 	0
scalar abilene_cost_network.node[1].content_store 	decision_ratio[1] 	1
scalar abilene_cost_network.node[2].core_layer 	interests[2] 	121277
scalar abilene_cost_network.node[2].core_layer 	data[2] 	117711
scalar abilene_cost_network.node[2].content_store 	p_hit[2] 	0.029403761636584
scalar abilene_cost_network.node[2].content_store 	hits[2] 	3566
scalar abilene_cost_network.node[2].content_store 	misses[2] 	117711
scalar abilene_cost_network.node[2].content_store 	decision_yes[2] 	117711
scalar abilene_cost_network.node[2].content_store 	decision_no[2] 	0
scalar abilene_cost_network.node[2].content_store 	decision_ratio[2] 	1
scalar abilene_cost_network.node[3].core_layer 	interests[3] 	112765
scalar abilene_cost_network.node[3].core_layer 	data[3] 	111820
scalar abilene_cost_network.node[3].content_store 	p_hit[3] 	0.0083802598323948
scalar abilene_cost_network.node[3].content_store 	hits[3] 	945
scalar abilene_cost_network.node[3].content_store 	misses[3] 	111820
scalar abilene_cost_network.node[3].content_store 	decision_yes[3] 	111820
scalar abilene_cost_network.node[3].content_store 	decision_no[3] 	0
scalar abilene_cost_network.node[3].content_store 	decision_ratio[3] 	1
scalar abilene_cost_network.node[4].core_layer 	interests[4] 	79174
scalar abilene_cost_network.node[4].core_layer 	data[4] 	76140
scalar abilene_cost_network.node[4].content_store 	p_hit[4] 	0.038320660822997
scalar abilene_cost_network.node[4].content_store 	hits[4] 	3034
scalar abilene_cost_network.node[4].content_store 	misses[4] 	76140
scalar abilene_cost_network.node[4].content_store 	decision_yes[4] 	76140
scalar abilene_cost_network.node[4].content_store 	decision_no[4] 	0
scalar abilene_cost_network.node[4].content_store 	decision_ratio[4] 	1
scalar abilene_cost_network.node[5].core_layer 	interests[5] 	180345
scalar abilene_cost_network.node[5].core_layer 	data[5] 	129375
scalar abilene_cost_network.node[5].content_store 	p_hit[5] 	0.28262496880978
scalar abilene_cost_network.node[5].content_store 	hits[5] 	50970
scalar abilene_cost_network.node[5].content_store 	misses[5] 	129375
scalar abilene_cost_network.node[5].content_store 	decision_yes[5] 	129375
scalar abilene_cost_network.node[5].content_store 	decision_no[5] 	0
scalar abilene_cost_network.node[5].content_store 	decision_ratio[5] 	1
scalar abilene_cost_network.node[6].core_layer 	interests[6] 	55121
scalar abilene_cost_network.node[6].core_layer 	data[6] 	42083
scalar abilene_cost_network.node[6].content_store 	p_hit[6] 	0.23653417027993
scalar abilene_cost_network.node[6].content_store 	hits[6] 	13038
scalar abilene_cost_network.node[6].content_store 	misses[6] 	42083
scalar abilene_cost_network.node[6].content_store 	decision_yes[6] 	42083
scalar abilene_cost_network.node[6].content_store 	decision_no[6] 	0
scalar abilene_cost_network.node[6].content_store 	decision_ratio[6] 	1
scalar abilene_cost_network.node[7].core_layer 	interests[7] 	114359
scalar abilene_cost_network.node[7].core_layer 	data[7] 	110777
scalar abilene_cost_network.node[7].content_store 	p_hit[7] 	0.031322414501701
scalar abilene_cost_network.node[7].content_store 	hits[7] 	3582
scalar abilene_cost_network.node[7].content_store 	misses[7] 	110777
scalar abilene_cost_network.node[7].content_store 	decision_yes[7] 	110777
scalar abilene_cost_network.node[7].content_store 	decision_no[7] 	0
scalar abilene_cost_network.node[7].content_store 	decision_ratio[7] 	1
scalar abilene_cost_network.node[8].core_layer 	interests[8] 	62030
scalar abilene_cost_network.node[8].core_layer 	data[8] 	42697
scalar abilene_cost_network.node[8].content_store 	p_hit[8] 	0.31167177172336
scalar abilene_cost_network.node[8].content_store 	hits[8] 	19333
scalar abilene_cost_network.node[8].content_store 	misses[8] 	42697
scalar abilene_cost_network.node[8].content_store 	decision_yes[8] 	42697
scalar abilene_cost_network.node[8].content_store 	decision_no[8] 	0
scalar abilene_cost_network.node[8].content_store 	decision_ratio[8] 	1
scalar abilene_cost_network.node[9].core_layer 	interests[9] 	190430
scalar abilene_cost_network.node[9].core_layer 	data[9] 	128023
scalar abilene_cost_network.node[9].content_store 	p_hit[9] 	0.32771622118364
scalar abilene_cost_network.node[9].content_store 	hits[9] 	62407
scalar abilene_cost_network.node[9].content_store 	misses[9] 	128023
scalar abilene_cost_network.node[9].content_store 	decision_yes[9] 	128023
scalar abilene_cost_network.node[9].content_store 	decision_no[9] 	0
scalar abilene_cost_network.node[9].content_store 	decision_ratio[9] 	1
scalar abilene_cost_network.node[10].core_layer 	interests[10] 	163128
scalar abilene_cost_network.node[10].core_layer 	data[10] 	157972
scalar abilene_cost_network.node[10].content_store 	p_hit[10] 	0.031607081555588
scalar abilene_cost_network.node[10].content_store 	hits[10] 	5156
scalar abilene_cost_network.node[10].content_store 	misses[10] 	157972
scalar abilene_cost_network.node[10].content_store 	decision_yes[10] 	157972
scalar abilene_cost_network.node[10].content_store 	decision_no[10] 	0
scalar abilene_cost_network.node[10].content_store 	decision_ratio[10] 	1
scalar abilene_cost_network.node[11].core_layer 	interests[11] 	110508
scalar abilene_cost_network.node[11].core_layer 	repo_load[11] 	110508
scalar abilene_cost_network.node[11].core_layer 	data[11] 	0
scalar abilene_cost_network.node[11].content_store 	p_hit[11] 	0
scalar abilene_cost_network.node[11].content_store 	hits[11] 	0
scalar abilene_cost_network.node[11].content_store 	misses[11] 	110508
scalar abilene_cost_network.node[11].content_store 	decision_yes[11] 	0
scalar abilene_cost_network.node[11].content_store 	decision_no[11] 	110508
scalar abilene_cost_network.node[11].content_store 	decision_ratio[11] 	0
scalar abilene_cost_network.node[12].core_layer 	interests[12] 	99284
scalar abilene_cost_network.node[12].core_layer 	repo_load[12] 	99284
scalar abilene_cost_network.node[12].core_layer 	data[12] 	0
scalar abilene_cost_network.node[12].content_store 	p_hit[12] 	0
scalar abilene_cost_network.node[12].content_store 	hits[12] 	0
scalar abilene_cost_network.node[12].content_store 	misses[12] 	99284
scalar abilene_cost_network.node[12].content_store 	decision_yes[12] 	0
scalar abilene_cost_network.node[12].content_store 	decision_no[12] 	99284
scalar abilene_cost_network.node[12].content_store 	decision_ratio[12] 	0
scalar abilene_cost_network.node[13].core_layer 	interests[13] 	108885
scalar abilene_cost_network.node[13].core_layer 	repo_load[13] 	108885
scalar abilene_cost_network.node[13].core_layer 	data[13] 	0
scalar abilene_cost_network.node[13].content_store 	p_hit[13] 	0
scalar abilene_cost_network.node[13].content_store 	hits[13] 	0
scalar abilene_cost_network.node[13].content_store 	misses[13] 	108885
scalar abilene_cost_network.node[13].content_store 	decision_yes[13] 	0
scalar abilene_cost_network.node[13].content_store 	decision_no[13] 	108885
scalar abilene_cost_network.node[13].content_store 	decision_ratio[13] 	0
scalar abilene_cost_network.client[0] 	hdistance[0] 	2.6306161852661
scalar abilene_cost_network.client[0] 	downloads[0] 	180238
scalar abilene_cost_network.client[0] 	avg_time[0] 	0
scalar abilene_cost_network.client[0] 	interests_sent[0] 	180238
scalar abilene_cost_network.client[5] 	hdistance[5] 	3.6498247095624
scalar abilene_cost_network.client[5] 	downloads[5] 	179987
scalar abilene_cost_network.client[5] 	avg_time[5] 	1.1582e-08
scalar abilene_cost_network.client[5] 	interests_sent[5] 	179987
scalar abilene_cost_network.client[9] 	hdistance[9] 	2.3570040481321
scalar abilene_cost_network.client[9] 	downloads[9] 	179589
scalar abilene_cost_network.client[9] 	avg_time[9] 	0
scalar abilene_cost_network.client[9] 	interests_sent[9] 	179589
