version 2
run General-2358-20140422-20:29:07-6536
attr D lce
attr F nrr
attr R lru
attr a 1.2
attr configname General
attr csize 10
attr ctlg 10^3
attr datetime 20140422-20:29:07
attr experiment General
attr inifile omnetpp.ini
attr iterationvars "$net=simple_scenario, $rep=20, $priceratiovalue=7, $a=1.2, $ctlg=10^3, $F=nrr, $ttl=1000, $D=lce, $R=lru, $csize=10"
attr iterationvars2 "$net=simple_scenario, $rep=20, $priceratiovalue=7, $a=1.2, $ctlg=10^3, $F=nrr, $ttl=1000, $D=lce, $R=lru, $csize=10, $repetition=0"
attr measurement "$net=simple_scenario, $rep=20, $priceratiovalue=7, $a=1.2, $ctlg=10^3, $F=nrr, $ttl=1000, $D=lce, $R=lru, $csize=10"
attr net simple_scenario
attr network networks.${net=simple_scenario}_network
attr priceratiovalue 7
attr processid 6536
attr rep 20
attr repetition 0
attr replication #0
attr resultdir results
attr runnumber 2358
attr seedset 20
attr ttl 1000

scalar . 	a 	1.2
scalar . 	csize 	10
scalar . 	priceratiovalue 	7
scalar . 	rep 	20
scalar . 	ttl 	1000
scalar simple_scenario_network.content_distribution 	repo-0 	3
scalar simple_scenario_network.content_distribution 	repo-1 	4
scalar simple_scenario_network.content_distribution 	client-0 	0
scalar simple_scenario_network.content_distribution 	repo-0_card 	484
scalar simple_scenario_network.content_distribution 	repo-1_card 	516
scalar simple_scenario_network.statistics 	p_hit 	0.24246405216591
scalar simple_scenario_network.statistics 	interests 	75206.2
scalar simple_scenario_network.statistics 	data 	39232
scalar simple_scenario_network.statistics 	hdistance 	1.5836738551518
scalar simple_scenario_network.statistics 	avg_time 	0.001985250744
scalar simple_scenario_network.statistics 	downloads 	179871
scalar simple_scenario_network.statistics 	total_cost 	42329
scalar simple_scenario_network.node[0].core_layer 	interests[0] 	179871
scalar simple_scenario_network.node[0].core_layer 	data[0] 	107463
scalar simple_scenario_network.node[0].core_layer 	repo_int[0] 	88697
scalar simple_scenario_network.node[0].content_store 	p_hit[0] 	0.40255516453458
scalar simple_scenario_network.node[0].content_store 	hits[0] 	72408
scalar simple_scenario_network.node[0].content_store 	misses[0] 	107463
scalar simple_scenario_network.node[1].core_layer 	interests[1] 	55983
scalar simple_scenario_network.node[1].core_layer 	data[1] 	47041
scalar simple_scenario_network.node[1].content_store 	p_hit[1] 	0.15972706000036
scalar simple_scenario_network.node[1].content_store 	hits[1] 	8942
scalar simple_scenario_network.node[1].content_store 	misses[1] 	47041
scalar simple_scenario_network.node[2].core_layer 	interests[2] 	51480
scalar simple_scenario_network.node[2].core_layer 	data[2] 	41656
scalar simple_scenario_network.node[2].content_store 	p_hit[2] 	0.19083139083139
scalar simple_scenario_network.node[2].content_store 	hits[2] 	9824
scalar simple_scenario_network.node[2].content_store 	misses[2] 	41656
scalar simple_scenario_network.node[3].core_layer 	interests[3] 	47041
scalar simple_scenario_network.node[3].core_layer 	repo_load[3] 	47041
scalar simple_scenario_network.node[3].core_layer 	data[3] 	0
scalar simple_scenario_network.node[3].content_store 	p_hit[3] 	0
scalar simple_scenario_network.node[3].content_store 	hits[3] 	0
scalar simple_scenario_network.node[3].content_store 	misses[3] 	47041
scalar simple_scenario_network.node[4].core_layer 	interests[4] 	41656
scalar simple_scenario_network.node[4].core_layer 	repo_load[4] 	41656
scalar simple_scenario_network.node[4].core_layer 	data[4] 	0
scalar simple_scenario_network.node[4].content_store 	p_hit[4] 	0
scalar simple_scenario_network.node[4].content_store 	hits[4] 	0
scalar simple_scenario_network.node[4].content_store 	misses[4] 	41656
scalar simple_scenario_network.client[0] 	hdistance[0] 	1.5836738551518
scalar simple_scenario_network.client[0] 	downloads[0] 	179871
scalar simple_scenario_network.client[0] 	avg_time[0] 	0.001985250744
