version 2
run General-438-20140422-19:47:54-27165
attr D lce
attr F nrr
attr R lru
attr a 1.2
attr configname General
attr csize 10
attr ctlg 10^3
attr datetime 20140422-19:47:54
attr experiment General
attr inifile omnetpp.ini
attr iterationvars "$net=simple_scenario, $rep=4, $priceratiovalue=7, $a=1.2, $ctlg=10^3, $F=nrr, $ttl=1000, $D=lce, $R=lru, $csize=10"
attr iterationvars2 "$net=simple_scenario, $rep=4, $priceratiovalue=7, $a=1.2, $ctlg=10^3, $F=nrr, $ttl=1000, $D=lce, $R=lru, $csize=10, $repetition=0"
attr measurement "$net=simple_scenario, $rep=4, $priceratiovalue=7, $a=1.2, $ctlg=10^3, $F=nrr, $ttl=1000, $D=lce, $R=lru, $csize=10"
attr net simple_scenario
attr network networks.${net=simple_scenario}_network
attr priceratiovalue 7
attr processid 27165
attr rep 4
attr repetition 0
attr replication #0
attr resultdir results
attr runnumber 438
attr seedset 4
attr ttl 1000

scalar . 	a 	1.2
scalar . 	csize 	10
scalar . 	priceratiovalue 	7
scalar . 	rep 	4
scalar . 	ttl 	1000
scalar simple_scenario_network.content_distribution 	repo-0 	3
scalar simple_scenario_network.content_distribution 	repo-1 	4
scalar simple_scenario_network.content_distribution 	client-0 	0
scalar simple_scenario_network.content_distribution 	repo-0_card 	490
scalar simple_scenario_network.content_distribution 	repo-1_card 	510
scalar simple_scenario_network.statistics 	p_hit 	0.2427541816597
scalar simple_scenario_network.statistics 	interests 	75257.2
scalar simple_scenario_network.statistics 	data 	39244.4
scalar simple_scenario_network.statistics 	hdistance 	1.5824429091878
scalar simple_scenario_network.statistics 	avg_time 	0.001984834036
scalar simple_scenario_network.statistics 	downloads 	180064
scalar simple_scenario_network.statistics 	total_cost 	43081
scalar simple_scenario_network.node[0].core_layer 	interests[0] 	180064
scalar simple_scenario_network.node[0].core_layer 	data[0] 	107503
scalar simple_scenario_network.node[0].core_layer 	repo_int[0] 	88719
scalar simple_scenario_network.node[0].content_store 	p_hit[0] 	0.40297338724009
scalar simple_scenario_network.node[0].content_store 	hits[0] 	72561
scalar simple_scenario_network.node[0].content_store 	misses[0] 	107503
scalar simple_scenario_network.node[1].core_layer 	interests[1] 	54189
scalar simple_scenario_network.node[1].core_layer 	data[1] 	46064
scalar simple_scenario_network.node[1].content_store 	p_hit[1] 	0.14993817933529
scalar simple_scenario_network.node[1].content_store 	hits[1] 	8125
scalar simple_scenario_network.node[1].content_store 	misses[1] 	46064
scalar simple_scenario_network.node[2].core_layer 	interests[2] 	53314
scalar simple_scenario_network.node[2].core_layer 	data[2] 	42655
scalar simple_scenario_network.node[2].content_store 	p_hit[2] 	0.19992872416251
scalar simple_scenario_network.node[2].content_store 	hits[2] 	10659
scalar simple_scenario_network.node[2].content_store 	misses[2] 	42655
scalar simple_scenario_network.node[3].core_layer 	interests[3] 	46064
scalar simple_scenario_network.node[3].core_layer 	repo_load[3] 	46064
scalar simple_scenario_network.node[3].core_layer 	data[3] 	0
scalar simple_scenario_network.node[3].content_store 	p_hit[3] 	0
scalar simple_scenario_network.node[3].content_store 	hits[3] 	0
scalar simple_scenario_network.node[3].content_store 	misses[3] 	46064
scalar simple_scenario_network.node[4].core_layer 	interests[4] 	42655
scalar simple_scenario_network.node[4].core_layer 	repo_load[4] 	42655
scalar simple_scenario_network.node[4].core_layer 	data[4] 	0
scalar simple_scenario_network.node[4].content_store 	p_hit[4] 	0
scalar simple_scenario_network.node[4].content_store 	hits[4] 	0
scalar simple_scenario_network.node[4].content_store 	misses[4] 	42655
scalar simple_scenario_network.client[0] 	hdistance[0] 	1.5824429091878
scalar simple_scenario_network.client[0] 	downloads[0] 	180064
scalar simple_scenario_network.client[0] 	avg_time[0] 	0.001984834036
