version 2
run General-1379-20140422-20:08:01-28220
attr D costprob0.01
attr F nrr
attr R lru
attr a 1.2
attr configname General
attr csize 10
attr ctlg 10^3
attr datetime 20140422-20:08:01
attr experiment General
attr inifile omnetpp.ini
attr iterationvars "$net=simple_scenario, $rep=12, $priceratiovalue=5, $a=1.2, $ctlg=10^3, $F=nrr, $ttl=1000, $D=costprob0.01, $R=lru, $csize=10"
attr iterationvars2 "$net=simple_scenario, $rep=12, $priceratiovalue=5, $a=1.2, $ctlg=10^3, $F=nrr, $ttl=1000, $D=costprob0.01, $R=lru, $csize=10, $repetition=0"
attr measurement "$net=simple_scenario, $rep=12, $priceratiovalue=5, $a=1.2, $ctlg=10^3, $F=nrr, $ttl=1000, $D=costprob0.01, $R=lru, $csize=10"
attr net simple_scenario
attr network networks.${net=simple_scenario}_network
attr priceratiovalue 5
attr processid 28220
attr rep 12
attr repetition 0
attr replication #0
attr resultdir results
attr runnumber 1379
attr seedset 12
attr ttl 1000

scalar . 	a 	1.2
scalar . 	csize 	10
scalar . 	priceratiovalue 	5
scalar . 	rep 	12
scalar . 	ttl 	1000
scalar simple_scenario_network.content_distribution 	repo-0 	3
scalar simple_scenario_network.content_distribution 	repo-1 	4
scalar simple_scenario_network.content_distribution 	client-0 	0
scalar simple_scenario_network.content_distribution 	repo-0_card 	492
scalar simple_scenario_network.content_distribution 	repo-1_card 	508
scalar simple_scenario_network.statistics 	p_hit 	0.34119371093616
scalar simple_scenario_network.statistics 	interests 	70013.6
scalar simple_scenario_network.statistics 	data 	33937.6
scalar simple_scenario_network.statistics 	hdistance 	1.2785619248254
scalar simple_scenario_network.statistics 	avg_time 	0.001985253768
scalar simple_scenario_network.statistics 	downloads 	180380
scalar simple_scenario_network.statistics 	total_cost 	28891
scalar simple_scenario_network.node[0].core_layer 	interests[0] 	180380
scalar simple_scenario_network.node[0].core_layer 	data[0] 	108749
scalar simple_scenario_network.node[0].core_layer 	repo_int[0] 	60939
scalar simple_scenario_network.node[0].content_store 	p_hit[0] 	0.39711165317663
scalar simple_scenario_network.node[0].content_store 	hits[0] 	71631
scalar simple_scenario_network.node[0].content_store 	misses[0] 	108749
scalar simple_scenario_network.node[1].core_layer 	interests[1] 	49519
scalar simple_scenario_network.node[1].core_layer 	data[1] 	32836
scalar simple_scenario_network.node[1].content_store 	p_hit[1] 	0.33690098749975
scalar simple_scenario_network.node[1].content_store 	hits[1] 	16683
scalar simple_scenario_network.node[1].content_store 	misses[1] 	32836
scalar simple_scenario_network.node[2].core_layer 	interests[2] 	59230
scalar simple_scenario_network.node[2].core_layer 	data[2] 	28103
scalar simple_scenario_network.node[2].content_store 	p_hit[2] 	0.5255276042546
scalar simple_scenario_network.node[2].content_store 	hits[2] 	31127
scalar simple_scenario_network.node[2].content_store 	misses[2] 	28103
scalar simple_scenario_network.node[3].core_layer 	interests[3] 	32836
scalar simple_scenario_network.node[3].core_layer 	repo_load[3] 	32836
scalar simple_scenario_network.node[3].core_layer 	data[3] 	0
scalar simple_scenario_network.node[3].content_store 	p_hit[3] 	0
scalar simple_scenario_network.node[3].content_store 	hits[3] 	0
scalar simple_scenario_network.node[3].content_store 	misses[3] 	32836
scalar simple_scenario_network.node[4].core_layer 	interests[4] 	28103
scalar simple_scenario_network.node[4].core_layer 	repo_load[4] 	28103
scalar simple_scenario_network.node[4].core_layer 	data[4] 	0
scalar simple_scenario_network.node[4].content_store 	p_hit[4] 	0
scalar simple_scenario_network.node[4].content_store 	hits[4] 	0
scalar simple_scenario_network.node[4].content_store 	misses[4] 	28103
scalar simple_scenario_network.client[0] 	hdistance[0] 	1.2785619248254
scalar simple_scenario_network.client[0] 	downloads[0] 	180380
scalar simple_scenario_network.client[0] 	avg_time[0] 	0.001985253768
