version 2
run General-103-20140424-12:14:12-12643
attr D costprob0.01
attr F nrr
attr R lru
attr a 1.2
attr configname General
attr csize 10
attr ctlg 10^3
attr datetime 20140424-12:14:12
attr experiment General
attr inifile omnetpp.ini
attr iterationvars "$net=simple_scenario, $rep=1, $priceratiovalue=5, $a=1.2, $ctlg=10^3, $F=nrr, $ttl=1000, $D=costprob0.01, $R=lru, $csize=10"
attr iterationvars2 "$net=simple_scenario, $rep=1, $priceratiovalue=5, $a=1.2, $ctlg=10^3, $F=nrr, $ttl=1000, $D=costprob0.01, $R=lru, $csize=10, $repetition=0"
attr measurement "$net=simple_scenario, $rep=1, $priceratiovalue=5, $a=1.2, $ctlg=10^3, $F=nrr, $ttl=1000, $D=costprob0.01, $R=lru, $csize=10"
attr net simple_scenario
attr network networks.${net=simple_scenario}_network
attr priceratiovalue 5
attr processid 12643
attr rep 1
attr repetition 0
attr replication #0
attr resultdir results
attr runnumber 103
attr seedset 1
attr ttl 1000

scalar . 	a 	1.2
scalar . 	csize 	10
scalar . 	priceratiovalue 	5
scalar . 	rep 	1
scalar . 	ttl 	1000
scalar simple_scenario_network.content_distribution 	repo-0 	3
scalar simple_scenario_network.content_distribution 	repo-1 	4
scalar simple_scenario_network.content_distribution 	client-0 	0
scalar simple_scenario_network.content_distribution 	repo-0_card 	522
scalar simple_scenario_network.content_distribution 	repo-1_card 	478
scalar simple_scenario_network.statistics 	p_hit 	0.36139461342305
scalar simple_scenario_network.statistics 	interests 	67293.2
scalar simple_scenario_network.statistics 	data 	31233.2
scalar simple_scenario_network.statistics 	hdistance 	1.1917304492512
scalar simple_scenario_network.statistics 	avg_time 	0.001985365692
scalar simple_scenario_network.statistics 	downloads 	180300
scalar simple_scenario_network.statistics 	total_cost 	28691
scalar simple_scenario_network.node[0].core_layer 	interests[0] 	180300
scalar simple_scenario_network.node[0].core_layer 	data[0] 	97463
scalar simple_scenario_network.node[0].core_layer 	repo_int[0] 	58703
scalar simple_scenario_network.node[0].content_store 	p_hit[0] 	0.45943982251803
scalar simple_scenario_network.node[0].content_store 	hits[0] 	82837
scalar simple_scenario_network.node[0].content_store 	misses[0] 	97463
scalar simple_scenario_network.node[1].core_layer 	interests[1] 	49850
scalar simple_scenario_network.node[1].core_layer 	data[1] 	30340
scalar simple_scenario_network.node[1].content_store 	p_hit[1] 	0.3913741223671
scalar simple_scenario_network.node[1].content_store 	hits[1] 	19510
scalar simple_scenario_network.node[1].content_store 	misses[1] 	30340
scalar simple_scenario_network.node[2].core_layer 	interests[2] 	47613
scalar simple_scenario_network.node[2].core_layer 	data[2] 	28363
scalar simple_scenario_network.node[2].content_store 	p_hit[2] 	0.40430134627098
scalar simple_scenario_network.node[2].content_store 	hits[2] 	19250
scalar simple_scenario_network.node[2].content_store 	misses[2] 	28363
scalar simple_scenario_network.node[3].core_layer 	interests[3] 	30340
scalar simple_scenario_network.node[3].core_layer 	repo_load[3] 	30340
scalar simple_scenario_network.node[3].core_layer 	data[3] 	0
scalar simple_scenario_network.node[3].content_store 	p_hit[3] 	0
scalar simple_scenario_network.node[3].content_store 	hits[3] 	0
scalar simple_scenario_network.node[3].content_store 	misses[3] 	30340
scalar simple_scenario_network.node[4].core_layer 	interests[4] 	28363
scalar simple_scenario_network.node[4].core_layer 	repo_load[4] 	28363
scalar simple_scenario_network.node[4].core_layer 	data[4] 	0
scalar simple_scenario_network.node[4].content_store 	p_hit[4] 	0
scalar simple_scenario_network.node[4].content_store 	hits[4] 	0
scalar simple_scenario_network.node[4].content_store 	misses[4] 	28363
scalar simple_scenario_network.client[0] 	hdistance[0] 	1.1917304492512
scalar simple_scenario_network.client[0] 	downloads[0] 	180300
scalar simple_scenario_network.client[0] 	avg_time[0] 	0.001985365692
