version 2
run General-1259-20140422-20:05:27-28088
attr D costprob0.01
attr F nrr
attr R lru
attr a 1.2
attr configname General
attr csize 10
attr ctlg 10^3
attr datetime 20140422-20:05:27
attr experiment General
attr inifile omnetpp.ini
attr iterationvars "$net=simple_scenario, $rep=11, $priceratiovalue=5, $a=1.2, $ctlg=10^3, $F=nrr, $ttl=1000, $D=costprob0.01, $R=lru, $csize=10"
attr iterationvars2 "$net=simple_scenario, $rep=11, $priceratiovalue=5, $a=1.2, $ctlg=10^3, $F=nrr, $ttl=1000, $D=costprob0.01, $R=lru, $csize=10, $repetition=0"
attr measurement "$net=simple_scenario, $rep=11, $priceratiovalue=5, $a=1.2, $ctlg=10^3, $F=nrr, $ttl=1000, $D=costprob0.01, $R=lru, $csize=10"
attr net simple_scenario
attr network networks.${net=simple_scenario}_network
attr priceratiovalue 5
attr processid 28088
attr rep 11
attr repetition 0
attr replication #0
attr resultdir results
attr runnumber 1259
attr seedset 11
attr ttl 1000

scalar . 	a 	1.2
scalar . 	csize 	10
scalar . 	priceratiovalue 	5
scalar . 	rep 	11
scalar . 	ttl 	1000
scalar simple_scenario_network.content_distribution 	repo-0 	3
scalar simple_scenario_network.content_distribution 	repo-1 	4
scalar simple_scenario_network.content_distribution 	client-0 	0
scalar simple_scenario_network.content_distribution 	repo-0_card 	503
scalar simple_scenario_network.content_distribution 	repo-1_card 	497
scalar simple_scenario_network.statistics 	p_hit 	0.32200374031526
scalar simple_scenario_network.statistics 	interests 	74860
scalar simple_scenario_network.statistics 	data 	38810.4
scalar simple_scenario_network.statistics 	hdistance 	1.4079157605077
scalar simple_scenario_network.statistics 	avg_time 	0.001985313172
scalar simple_scenario_network.statistics 	downloads 	180248
scalar simple_scenario_network.statistics 	total_cost 	30503
scalar simple_scenario_network.node[0].core_layer 	interests[0] 	180248
scalar simple_scenario_network.node[0].core_layer 	data[0] 	134330
scalar simple_scenario_network.node[0].core_layer 	repo_int[0] 	59722
scalar simple_scenario_network.node[0].content_store 	p_hit[0] 	0.25474901247171
scalar simple_scenario_network.node[0].content_store 	hits[0] 	45918
scalar simple_scenario_network.node[0].content_store 	misses[0] 	134330
scalar simple_scenario_network.node[1].core_layer 	interests[1] 	40192
scalar simple_scenario_network.node[1].core_layer 	data[1] 	28897
scalar simple_scenario_network.node[1].content_store 	p_hit[1] 	0.28102607484076
scalar simple_scenario_network.node[1].content_store 	hits[1] 	11295
scalar simple_scenario_network.node[1].content_store 	misses[1] 	28897
scalar simple_scenario_network.node[2].core_layer 	interests[2] 	94138
scalar simple_scenario_network.node[2].core_layer 	data[2] 	30825
scalar simple_scenario_network.node[2].content_store 	p_hit[2] 	0.67255518494126
scalar simple_scenario_network.node[2].content_store 	hits[2] 	63313
scalar simple_scenario_network.node[2].content_store 	misses[2] 	30825
scalar simple_scenario_network.node[3].core_layer 	interests[3] 	28897
scalar simple_scenario_network.node[3].core_layer 	repo_load[3] 	28897
scalar simple_scenario_network.node[3].core_layer 	data[3] 	0
scalar simple_scenario_network.node[3].content_store 	p_hit[3] 	0
scalar simple_scenario_network.node[3].content_store 	hits[3] 	0
scalar simple_scenario_network.node[3].content_store 	misses[3] 	28897
scalar simple_scenario_network.node[4].core_layer 	interests[4] 	30825
scalar simple_scenario_network.node[4].core_layer 	repo_load[4] 	30825
scalar simple_scenario_network.node[4].core_layer 	data[4] 	0
scalar simple_scenario_network.node[4].content_store 	p_hit[4] 	0
scalar simple_scenario_network.node[4].content_store 	hits[4] 	0
scalar simple_scenario_network.node[4].content_store 	misses[4] 	30825
scalar simple_scenario_network.client[0] 	hdistance[0] 	1.4079157605077
scalar simple_scenario_network.client[0] 	downloads[0] 	180248
scalar simple_scenario_network.client[0] 	avg_time[0] 	0.001985313172
