version 2
run General-7-20140409-19:29:57-3246
attr D fix0.1
attr F nrr
attr R lru
attr a 1.2
attr configname General
attr csize 10
attr ctlg 10^4
attr datetime 20140409-19:29:57
attr experiment General
attr inifile omnetpp.ini
attr iterationvars "$net=simple_scenario, $rep=0, $priceratiovalue=1, $a=1.2, $ctlg=10^4, $F=nrr, $ttl=1000, $D=fix0.1, $R=lru, $csize=10"
attr iterationvars2 "$net=simple_scenario, $rep=0, $priceratiovalue=1, $a=1.2, $ctlg=10^4, $F=nrr, $ttl=1000, $D=fix0.1, $R=lru, $csize=10, $repetition=0"
attr measurement "$net=simple_scenario, $rep=0, $priceratiovalue=1, $a=1.2, $ctlg=10^4, $F=nrr, $ttl=1000, $D=fix0.1, $R=lru, $csize=10"
attr net simple_scenario
attr network networks.${net=simple_scenario}_network
attr priceratiovalue 1
attr processid 3246
attr rep 0
attr repetition 0
attr replication #0
attr resultdir results
attr runnumber 7
attr seedset 0
attr ttl 1000

scalar . 	a 	1.2
scalar . 	csize 	10
scalar . 	priceratiovalue 	1
scalar . 	rep 	0
scalar . 	ttl 	1000
scalar simple_scenario_network.content_distribution 	repo-0 	3
scalar simple_scenario_network.content_distribution 	repo-1 	4
scalar simple_scenario_network.content_distribution 	client-0 	0
scalar simple_scenario_network.content_distribution 	repo-0_card 	4915
scalar simple_scenario_network.content_distribution 	repo-1_card 	5085
scalar simple_scenario_network.statistics 	p_hit 	0.25711262733821
scalar simple_scenario_network.statistics 	interests 	73721
scalar simple_scenario_network.statistics 	data 	37769.8
scalar simple_scenario_network.statistics 	hdistance 	1.5233509682516
scalar simple_scenario_network.statistics 	avg_time 	0.001988066962
scalar simple_scenario_network.statistics 	downloads 	179757
scalar simple_scenario_network.statistics 	total_cost 	84983
scalar simple_scenario_network.node[0].core_layer 	interests[0] 	179756
scalar simple_scenario_network.node[0].core_layer 	data[0] 	103866
scalar simple_scenario_network.node[0].core_layer 	repo_int[0] 	84983
scalar simple_scenario_network.node[0].content_store 	p_hit[0] 	0.4221834041701
scalar simple_scenario_network.node[0].content_store 	hits[0] 	75890
scalar simple_scenario_network.node[0].content_store 	misses[0] 	103866
scalar simple_scenario_network.node[1].core_layer 	interests[1] 	45375
scalar simple_scenario_network.node[1].core_layer 	data[1] 	38605
scalar simple_scenario_network.node[1].content_store 	p_hit[1] 	0.14920110192837
scalar simple_scenario_network.node[1].content_store 	hits[1] 	6770
scalar simple_scenario_network.node[1].content_store 	misses[1] 	38605
scalar simple_scenario_network.node[2].core_layer 	interests[2] 	58491
scalar simple_scenario_network.node[2].core_layer 	data[2] 	46378
scalar simple_scenario_network.node[2].content_store 	p_hit[2] 	0.20709168931972
scalar simple_scenario_network.node[2].content_store 	hits[2] 	12113
scalar simple_scenario_network.node[2].content_store 	misses[2] 	46378
scalar simple_scenario_network.node[3].core_layer 	interests[3] 	38605
scalar simple_scenario_network.node[3].core_layer 	repo_load[3] 	38605
scalar simple_scenario_network.node[3].core_layer 	data[3] 	0
scalar simple_scenario_network.node[3].content_store 	p_hit[3] 	0
scalar simple_scenario_network.node[3].content_store 	hits[3] 	0
scalar simple_scenario_network.node[3].content_store 	misses[3] 	38605
scalar simple_scenario_network.node[4].core_layer 	interests[4] 	46378
scalar simple_scenario_network.node[4].core_layer 	repo_load[4] 	46378
scalar simple_scenario_network.node[4].core_layer 	data[4] 	0
scalar simple_scenario_network.node[4].content_store 	p_hit[4] 	0
scalar simple_scenario_network.node[4].content_store 	hits[4] 	0
scalar simple_scenario_network.node[4].content_store 	misses[4] 	46378
scalar simple_scenario_network.client[0] 	hdistance[0] 	1.5233509682516
scalar simple_scenario_network.client[0] 	downloads[0] 	179757
scalar simple_scenario_network.client[0] 	avg_time[0] 	0.001988066962
