version 2
run General-3-20140425-21:36:04-16435
attr D costprob0.02
attr F nrr
attr R lru
attr a 1
attr configname General
attr csize 10
attr ctlg 10^3
attr datetime 20140425-21:36:04
attr experiment General
attr inifile omnetpp.ini
attr iterationvars "$net=one_cache_scenario, $rep=1, $priceratiovalue=2, $a=1, $ctlg=10^3, $F=nrr, $ttl=1000, $D=costprob0.02, $R=lru, $csize=10, $tempo=4800"
attr iterationvars2 "$net=one_cache_scenario, $rep=1, $priceratiovalue=2, $a=1, $ctlg=10^3, $F=nrr, $ttl=1000, $D=costprob0.02, $R=lru, $csize=10, $tempo=4800, $repetition=0"
attr measurement "$net=one_cache_scenario, $rep=1, $priceratiovalue=2, $a=1, $ctlg=10^3, $F=nrr, $ttl=1000, $D=costprob0.02, $R=lru, $csize=10, $tempo=4800"
attr net one_cache_scenario
attr network networks.${net=one_cache_scenario}_network
attr priceratiovalue 2
attr processid 16435
attr rep 1
attr repetition 0
attr replication #0
attr resultdir results
attr runnumber 3
attr seedset 1
attr tempo 4800
attr ttl 1000

scalar . 	a 	1
scalar . 	csize 	10
scalar . 	priceratiovalue 	2
scalar . 	rep 	1
scalar . 	tempo 	4800
scalar . 	ttl 	1000
scalar one_cache_scenario_network.content_distribution 	repo-0 	3
scalar one_cache_scenario_network.content_distribution 	repo-1 	4
scalar one_cache_scenario_network.content_distribution 	client-0 	0
scalar one_cache_scenario_network.content_distribution 	repo-0_card 	504
scalar one_cache_scenario_network.content_distribution 	repo-1_card 	496
scalar one_cache_scenario_network.statistics 	p_hit 	0.1443554978195
scalar one_cache_scenario_network.statistics 	interests 	222930.2
scalar one_cache_scenario_network.statistics 	data 	127166
scalar one_cache_scenario_network.statistics 	hdistance 	1.3279075061453
scalar one_cache_scenario_network.statistics 	avg_time 	0
scalar one_cache_scenario_network.statistics 	downloads 	478821
scalar one_cache_scenario_network.statistics 	total_cost 	158631
scalar one_cache_scenario_network.statistics 	interests_sent 	478821
scalar one_cache_scenario_network.node[0].core_layer 	interests[0] 	478821
scalar one_cache_scenario_network.node[0].core_layer 	data[0] 	317915
scalar one_cache_scenario_network.node[0].core_layer 	repo_int[0] 	317915
scalar one_cache_scenario_network.node[0].content_store 	p_hit[0] 	0.33604624692735
scalar one_cache_scenario_network.node[0].content_store 	hits[0] 	160906
scalar one_cache_scenario_network.node[0].content_store 	misses[0] 	317915
scalar one_cache_scenario_network.node[0].content_store 	decision_yes[0] 	3202
scalar one_cache_scenario_network.node[0].content_store 	decision_no[0] 	314713
scalar one_cache_scenario_network.node[1].core_layer 	interests[1] 	159934
scalar one_cache_scenario_network.node[1].core_layer 	data[1] 	159934
scalar one_cache_scenario_network.node[1].content_store 	p_hit[1] 	0
scalar one_cache_scenario_network.node[1].content_store 	hits[1] 	0
scalar one_cache_scenario_network.node[1].content_store 	misses[1] 	159934
scalar one_cache_scenario_network.node[1].content_store 	decision_yes[1] 	0
scalar one_cache_scenario_network.node[1].content_store 	decision_no[1] 	159934
scalar one_cache_scenario_network.node[2].core_layer 	interests[2] 	157981
scalar one_cache_scenario_network.node[2].core_layer 	data[2] 	157981
scalar one_cache_scenario_network.node[2].content_store 	p_hit[2] 	0
scalar one_cache_scenario_network.node[2].content_store 	hits[2] 	0
scalar one_cache_scenario_network.node[2].content_store 	misses[2] 	157981
scalar one_cache_scenario_network.node[2].content_store 	decision_yes[2] 	0
scalar one_cache_scenario_network.node[2].content_store 	decision_no[2] 	157981
scalar one_cache_scenario_network.node[3].core_layer 	interests[3] 	159934
scalar one_cache_scenario_network.node[3].core_layer 	repo_load[3] 	159934
scalar one_cache_scenario_network.node[3].core_layer 	data[3] 	0
scalar one_cache_scenario_network.node[3].content_store 	p_hit[3] 	0
scalar one_cache_scenario_network.node[3].content_store 	hits[3] 	0
scalar one_cache_scenario_network.node[3].content_store 	misses[3] 	159934
scalar one_cache_scenario_network.node[3].content_store 	decision_yes[3] 	0
scalar one_cache_scenario_network.node[3].content_store 	decision_no[3] 	159934
scalar one_cache_scenario_network.node[4].core_layer 	interests[4] 	157981
scalar one_cache_scenario_network.node[4].core_layer 	repo_load[4] 	157981
scalar one_cache_scenario_network.node[4].core_layer 	data[4] 	0
scalar one_cache_scenario_network.node[4].content_store 	p_hit[4] 	0
scalar one_cache_scenario_network.node[4].content_store 	hits[4] 	0
scalar one_cache_scenario_network.node[4].content_store 	misses[4] 	157981
scalar one_cache_scenario_network.node[4].content_store 	decision_yes[4] 	0
scalar one_cache_scenario_network.node[4].content_store 	decision_no[4] 	157981
scalar one_cache_scenario_network.client[0] 	hdistance[0] 	1.3279075061453
scalar one_cache_scenario_network.client[0] 	downloads[0] 	478821
scalar one_cache_scenario_network.client[0] 	avg_time[0] 	0
scalar one_cache_scenario_network.client[0] 	interests_sent[0] 	478821
