version 2
run General-11-20140626-16:50:49-10680
attr D costprobprodcorr0.01
attr F nrr
attr R lru
attr a 1
attr configname General
attr csize 1e3
attr ctlg 1e5
attr datetime 20140626-16:50:49
attr experiment General
attr inifile omnetpp.ini
attr iterationvars "$net=geant_cost, $rep=5, $priceratiovalue=10, $weights=0.333_0.333_0.334, $lambda=100, $a=1, $ctlg=1e5, $F=nrr, $ttl=1000, $D=costprobprodcorr0.01, $xi=1, $R=lru, $csize=1e3, $pricebits=0, $mytime=1800"
attr iterationvars2 "$net=geant_cost, $rep=5, $priceratiovalue=10, $weights=0.333_0.333_0.334, $lambda=100, $a=1, $ctlg=1e5, $F=nrr, $ttl=1000, $D=costprobprodcorr0.01, $xi=1, $R=lru, $csize=1e3, $pricebits=0, $mytime=1800, $repetition=0"
attr lambda 100
attr measurement "$net=geant_cost, $rep=5, $priceratiovalue=10, $weights=0.333_0.333_0.334, $lambda=100, $a=1, $ctlg=1e5, $F=nrr, $ttl=1000, $D=costprobprodcorr0.01, $xi=1, $R=lru, $csize=1e3, $pricebits=0, $mytime=1800"
attr mytime 1800
attr net geant_cost
attr network "networks.${net=geant_cost, abilene_cost}_network"
attr pricebits 0
attr priceratiovalue 10
attr processid 10680
attr rep 5
attr repetition 0
attr replication #0
attr resultdir results
attr runnumber 11
attr seedset 5
attr ttl 1000
attr weights 0.333_0.333_0.334
attr xi 1

scalar . 	a 	1
scalar . 	csize 	1e3
scalar . 	ctlg 	1e5
scalar . 	lambda 	100
scalar . 	mytime 	1800
scalar . 	pricebits 	0
scalar . 	priceratiovalue 	10
scalar . 	rep 	5
scalar . 	ttl 	1000
scalar . 	xi 	1
scalar geant_cost_network.content_distribution 	repo-0 	22
scalar geant_cost_network.content_distribution 	repo-1 	23
scalar geant_cost_network.content_distribution 	repo-2 	24
scalar geant_cost_network.content_distribution 	client-0 	20
scalar geant_cost_network.content_distribution 	client-1 	10
scalar geant_cost_network.content_distribution 	client-2 	12
scalar geant_cost_network.content_distribution 	client-3 	9
scalar geant_cost_network.content_distribution 	client-4 	5
scalar geant_cost_network.content_distribution 	repo-0_card 	33102
scalar geant_cost_network.content_distribution 	repo-1_card 	33495
scalar geant_cost_network.content_distribution 	repo-2_card 	33403
scalar geant_cost_network.statistics 	repo_popularity[0] 	0.44346789261525
scalar geant_cost_network.statistics 	repo_popularity[1] 	0.29134602320581
scalar geant_cost_network.statistics 	repo_popularity[2] 	0.26518608417894
scalar geant_cost_network.statistics 	stabilization_time 	36060
scalar geant_cost_network.node[7].face$o[4].channel 	price[7] 	0
scalar geant_cost_network.node[7].face$o[4].channel 	represented_price[7] 	0
scalar geant_cost_network.node[8].face$o[3].channel 	price[8] 	0
scalar geant_cost_network.node[8].face$o[3].channel 	represented_price[8] 	0
scalar geant_cost_network.node[21].face$o[5].channel 	price[21] 	0
scalar geant_cost_network.node[21].face$o[5].channel 	represented_price[21] 	0
scalar geant_cost_network.node[22].face$o[1].channel 	price[22] 	0
scalar geant_cost_network.node[22].face$o[1].channel 	represented_price[22] 	0
scalar geant_cost_network.node[23].face$o[1].channel 	price[23] 	1
scalar geant_cost_network.node[23].face$o[1].channel 	represented_price[23] 	1
scalar geant_cost_network.node[24].face$o[1].channel 	price[24] 	10
scalar geant_cost_network.node[24].face$o[1].channel 	represented_price[24] 	10
scalar geant_cost_network.statistics 	p_hit 	0.06075722936682
scalar geant_cost_network.statistics 	interests 	154248.64
scalar geant_cost_network.statistics 	data 	118270.72
scalar geant_cost_network.statistics 	hdistance 	4.0538727384367
scalar geant_cost_network.statistics 	avg_time 	0.007260831764
scalar geant_cost_network.statistics 	downloads 	893172
scalar geant_cost_network.statistics 	total_cost 	1445693
scalar geant_cost_network.statistics 	total_replicas 	100000
scalar geant_cost_network.statistics 	inner_hit 	0.26483924708791
scalar geant_cost_network.statistics 	interests_sent 	899439
scalar geant_cost_network.node[0].core_layer 	interests[0] 	0
scalar geant_cost_network.node[0].core_layer 	data[0] 	0
scalar geant_cost_network.node[0].core_layer 	repo_int[0] 	656625
scalar geant_cost_network.node[0].content_store 	p_hit[0] 	-nan
scalar geant_cost_network.node[0].content_store 	hits[0] 	0
scalar geant_cost_network.node[0].content_store 	misses[0] 	0
scalar geant_cost_network.node[0].content_store 	decision_yes[0] 	0
scalar geant_cost_network.node[0].content_store 	decision_no[0] 	0
scalar geant_cost_network.node[0].content_store 	decision_ratio[0] 	0
scalar geant_cost_network.node[0].content_store 	correction_factor[0] 	0.0027225701061802
scalar geant_cost_network.node[0].content_store 	xi[0] 	1
scalar geant_cost_network.node[1].core_layer 	interests[1] 	0
scalar geant_cost_network.node[1].core_layer 	data[1] 	0
scalar geant_cost_network.node[1].content_store 	p_hit[1] 	-nan
scalar geant_cost_network.node[1].content_store 	hits[1] 	0
scalar geant_cost_network.node[1].content_store 	misses[1] 	0
scalar geant_cost_network.node[1].content_store 	decision_yes[1] 	0
scalar geant_cost_network.node[1].content_store 	decision_no[1] 	0
scalar geant_cost_network.node[1].content_store 	decision_ratio[1] 	0
scalar geant_cost_network.node[1].content_store 	correction_factor[1] 	0.0027225701061802
scalar geant_cost_network.node[1].content_store 	xi[1] 	1
scalar geant_cost_network.node[2].core_layer 	interests[2] 	0
scalar geant_cost_network.node[2].core_layer 	data[2] 	0
scalar geant_cost_network.node[2].content_store 	p_hit[2] 	-nan
scalar geant_cost_network.node[2].content_store 	hits[2] 	0
scalar geant_cost_network.node[2].content_store 	misses[2] 	0
scalar geant_cost_network.node[2].content_store 	decision_yes[2] 	0
scalar geant_cost_network.node[2].content_store 	decision_no[2] 	0
scalar geant_cost_network.node[2].content_store 	decision_ratio[2] 	0
scalar geant_cost_network.node[2].content_store 	correction_factor[2] 	0.0027225701061802
scalar geant_cost_network.node[2].content_store 	xi[2] 	1
scalar geant_cost_network.node[3].core_layer 	interests[3] 	235491
scalar geant_cost_network.node[3].core_layer 	data[3] 	222121
scalar geant_cost_network.node[3].content_store 	p_hit[3] 	0.056719789715955
scalar geant_cost_network.node[3].content_store 	hits[3] 	13357
scalar geant_cost_network.node[3].content_store 	misses[3] 	222134
scalar geant_cost_network.node[3].content_store 	decision_yes[3] 	2041
scalar geant_cost_network.node[3].content_store 	decision_no[3] 	220080
scalar geant_cost_network.node[3].content_store 	decision_ratio[3] 	0.0091886854462208
scalar geant_cost_network.node[3].content_store 	correction_factor[3] 	0.0027225701061802
scalar geant_cost_network.node[3].content_store 	xi[3] 	1
scalar geant_cost_network.node[4].core_layer 	interests[4] 	327465
scalar geant_cost_network.node[4].core_layer 	data[4] 	308651
scalar geant_cost_network.node[4].content_store 	p_hit[4] 	0.055599835096881
scalar geant_cost_network.node[4].content_store 	hits[4] 	18207
scalar geant_cost_network.node[4].content_store 	misses[4] 	309258
scalar geant_cost_network.node[4].content_store 	decision_yes[4] 	2104
scalar geant_cost_network.node[4].content_store 	decision_no[4] 	306546
scalar geant_cost_network.node[4].content_store 	decision_ratio[4] 	0.0068167827636481
scalar geant_cost_network.node[4].content_store 	correction_factor[4] 	0.0027225701061802
scalar geant_cost_network.node[4].content_store 	xi[4] 	1
scalar geant_cost_network.node[5].core_layer 	interests[5] 	200223
scalar geant_cost_network.node[5].core_layer 	data[5] 	178090
scalar geant_cost_network.node[5].content_store 	p_hit[5] 	0.10183645235562
scalar geant_cost_network.node[5].content_store 	hits[5] 	20390
scalar geant_cost_network.node[5].content_store 	misses[5] 	179833
scalar geant_cost_network.node[5].content_store 	decision_yes[5] 	799
scalar geant_cost_network.node[5].content_store 	decision_no[5] 	177291
scalar geant_cost_network.node[5].content_store 	decision_ratio[5] 	0.0044864955921163
scalar geant_cost_network.node[5].content_store 	correction_factor[5] 	0.0027225701061802
scalar geant_cost_network.node[5].content_store 	xi[5] 	1
scalar geant_cost_network.node[6].core_layer 	interests[6] 	126669
scalar geant_cost_network.node[6].core_layer 	data[6] 	116218
scalar geant_cost_network.node[6].content_store 	p_hit[6] 	0.082514269473983
scalar geant_cost_network.node[6].content_store 	hits[6] 	10452
scalar geant_cost_network.node[6].content_store 	misses[6] 	116217
scalar geant_cost_network.node[6].content_store 	decision_yes[6] 	78
scalar geant_cost_network.node[6].content_store 	decision_no[6] 	116140
scalar geant_cost_network.node[6].content_store 	decision_ratio[6] 	0.00067115248928737
scalar geant_cost_network.node[6].content_store 	correction_factor[6] 	0.0027225701061802
scalar geant_cost_network.node[6].content_store 	xi[6] 	1
scalar geant_cost_network.node[7].core_layer 	interests[7] 	489666
scalar geant_cost_network.node[7].core_layer 	data[7] 	472657
scalar geant_cost_network.node[7].content_store 	p_hit[7] 	0.034609305118183
scalar geant_cost_network.node[7].content_store 	hits[7] 	16947
scalar geant_cost_network.node[7].content_store 	misses[7] 	472719
scalar geant_cost_network.node[7].content_store 	decision_yes[7] 	131
scalar geant_cost_network.node[7].content_store 	decision_no[7] 	472526
scalar geant_cost_network.node[7].content_store 	decision_ratio[7] 	0.00027715658500773
scalar geant_cost_network.node[7].content_store 	correction_factor[7] 	0.0027225701061802
scalar geant_cost_network.node[7].content_store 	xi[7] 	1
scalar geant_cost_network.node[8].core_layer 	interests[8] 	352640
scalar geant_cost_network.node[8].core_layer 	data[8] 	308511
scalar geant_cost_network.node[8].content_store 	p_hit[8] 	0.12513611615245
scalar geant_cost_network.node[8].content_store 	hits[8] 	44128
scalar geant_cost_network.node[8].content_store 	misses[8] 	308512
scalar geant_cost_network.node[8].content_store 	decision_yes[8] 	361
scalar geant_cost_network.node[8].content_store 	decision_no[8] 	308150
scalar geant_cost_network.node[8].content_store 	decision_ratio[8] 	0.0011701365591502
scalar geant_cost_network.node[8].content_store 	correction_factor[8] 	0.0027225701061802
scalar geant_cost_network.node[8].content_store 	xi[8] 	1
scalar geant_cost_network.node[9].core_layer 	interests[9] 	415249
scalar geant_cost_network.node[9].core_layer 	data[9] 	385612
scalar geant_cost_network.node[9].content_store 	p_hit[9] 	0.066829781649083
scalar geant_cost_network.node[9].content_store 	hits[9] 	27751
scalar geant_cost_network.node[9].content_store 	misses[9] 	387498
scalar geant_cost_network.node[9].content_store 	decision_yes[9] 	1650
scalar geant_cost_network.node[9].content_store 	decision_no[9] 	383962
scalar geant_cost_network.node[9].content_store 	decision_ratio[9] 	0.0042789124819767
scalar geant_cost_network.node[9].content_store 	correction_factor[9] 	0.0027225701061802
scalar geant_cost_network.node[9].content_store 	xi[9] 	1
scalar geant_cost_network.node[10].core_layer 	interests[10] 	192248
scalar geant_cost_network.node[10].core_layer 	data[10] 	175243
scalar geant_cost_network.node[10].content_store 	p_hit[10] 	0.08284091381965
scalar geant_cost_network.node[10].content_store 	hits[10] 	15926
scalar geant_cost_network.node[10].content_store 	misses[10] 	176322
scalar geant_cost_network.node[10].content_store 	decision_yes[10] 	741
scalar geant_cost_network.node[10].content_store 	decision_no[10] 	174502
scalar geant_cost_network.node[10].content_store 	decision_ratio[10] 	0.0042284142590574
scalar geant_cost_network.node[10].content_store 	correction_factor[10] 	0.0027225701061802
scalar geant_cost_network.node[10].content_store 	xi[10] 	1
scalar geant_cost_network.node[11].core_layer 	interests[11] 	0
scalar geant_cost_network.node[11].core_layer 	data[11] 	0
scalar geant_cost_network.node[11].content_store 	p_hit[11] 	-nan
scalar geant_cost_network.node[11].content_store 	hits[11] 	0
scalar geant_cost_network.node[11].content_store 	misses[11] 	0
scalar geant_cost_network.node[11].content_store 	decision_yes[11] 	0
scalar geant_cost_network.node[11].content_store 	decision_no[11] 	0
scalar geant_cost_network.node[11].content_store 	decision_ratio[11] 	0
scalar geant_cost_network.node[11].content_store 	correction_factor[11] 	0.0027225701061802
scalar geant_cost_network.node[11].content_store 	xi[11] 	1
scalar geant_cost_network.node[12].core_layer 	interests[12] 	286839
scalar geant_cost_network.node[12].core_layer 	data[12] 	276733
scalar geant_cost_network.node[12].content_store 	p_hit[12] 	0.030626937062254
scalar geant_cost_network.node[12].content_store 	hits[12] 	8785
scalar geant_cost_network.node[12].content_store 	misses[12] 	278054
scalar geant_cost_network.node[12].content_store 	decision_yes[12] 	2201
scalar geant_cost_network.node[12].content_store 	decision_no[12] 	274532
scalar geant_cost_network.node[12].content_store 	decision_ratio[12] 	0.0079535147597142
scalar geant_cost_network.node[12].content_store 	correction_factor[12] 	0.0027225701061802
scalar geant_cost_network.node[12].content_store 	xi[12] 	1
scalar geant_cost_network.node[13].core_layer 	interests[13] 	7810
scalar geant_cost_network.node[13].core_layer 	data[13] 	7810
scalar geant_cost_network.node[13].content_store 	p_hit[13] 	0
scalar geant_cost_network.node[13].content_store 	hits[13] 	0
scalar geant_cost_network.node[13].content_store 	misses[13] 	7810
scalar geant_cost_network.node[13].content_store 	decision_yes[13] 	0
scalar geant_cost_network.node[13].content_store 	decision_no[13] 	7810
scalar geant_cost_network.node[13].content_store 	decision_ratio[13] 	0
scalar geant_cost_network.node[13].content_store 	correction_factor[13] 	0.0027225701061802
scalar geant_cost_network.node[13].content_store 	xi[13] 	1
scalar geant_cost_network.node[14].core_layer 	interests[14] 	55698
scalar geant_cost_network.node[14].core_layer 	data[14] 	42505
scalar geant_cost_network.node[14].content_store 	p_hit[14] 	0.23686667384825
scalar geant_cost_network.node[14].content_store 	hits[14] 	13193
scalar geant_cost_network.node[14].content_store 	misses[14] 	42505
scalar geant_cost_network.node[14].content_store 	decision_yes[14] 	696
scalar geant_cost_network.node[14].content_store 	decision_no[14] 	41809
scalar geant_cost_network.node[14].content_store 	decision_ratio[14] 	0.016374544171274
scalar geant_cost_network.node[14].content_store 	correction_factor[14] 	0.0027225701061802
scalar geant_cost_network.node[14].content_store 	xi[14] 	1
scalar geant_cost_network.node[15].core_layer 	interests[15] 	0
scalar geant_cost_network.node[15].core_layer 	data[15] 	0
scalar geant_cost_network.node[15].content_store 	p_hit[15] 	-nan
scalar geant_cost_network.node[15].content_store 	hits[15] 	0
scalar geant_cost_network.node[15].content_store 	misses[15] 	0
scalar geant_cost_network.node[15].content_store 	decision_yes[15] 	0
scalar geant_cost_network.node[15].content_store 	decision_no[15] 	0
scalar geant_cost_network.node[15].content_store 	decision_ratio[15] 	0
scalar geant_cost_network.node[15].content_store 	correction_factor[15] 	0.0027225701061802
scalar geant_cost_network.node[15].content_store 	xi[15] 	1
scalar geant_cost_network.node[16].core_layer 	interests[16] 	0
scalar geant_cost_network.node[16].core_layer 	data[16] 	0
scalar geant_cost_network.node[16].content_store 	p_hit[16] 	-nan
scalar geant_cost_network.node[16].content_store 	hits[16] 	0
scalar geant_cost_network.node[16].content_store 	misses[16] 	0
scalar geant_cost_network.node[16].content_store 	decision_yes[16] 	0
scalar geant_cost_network.node[16].content_store 	decision_no[16] 	0
scalar geant_cost_network.node[16].content_store 	decision_ratio[16] 	0
scalar geant_cost_network.node[16].content_store 	correction_factor[16] 	0.0027225701061802
scalar geant_cost_network.node[16].content_store 	xi[16] 	1
scalar geant_cost_network.node[17].core_layer 	interests[17] 	0
scalar geant_cost_network.node[17].core_layer 	data[17] 	0
scalar geant_cost_network.node[17].content_store 	p_hit[17] 	-nan
scalar geant_cost_network.node[17].content_store 	hits[17] 	0
scalar geant_cost_network.node[17].content_store 	misses[17] 	0
scalar geant_cost_network.node[17].content_store 	decision_yes[17] 	0
scalar geant_cost_network.node[17].content_store 	decision_no[17] 	0
scalar geant_cost_network.node[17].content_store 	decision_ratio[17] 	0
scalar geant_cost_network.node[17].content_store 	correction_factor[17] 	0.0027225701061802
scalar geant_cost_network.node[17].content_store 	xi[17] 	1
scalar geant_cost_network.node[18].core_layer 	interests[18] 	164966
scalar geant_cost_network.node[18].core_layer 	data[18] 	159139
scalar geant_cost_network.node[18].content_store 	p_hit[18] 	0.035225440393778
scalar geant_cost_network.node[18].content_store 	hits[18] 	5811
scalar geant_cost_network.node[18].content_store 	misses[18] 	159155
scalar geant_cost_network.node[18].content_store 	decision_yes[18] 	84
scalar geant_cost_network.node[18].content_store 	decision_no[18] 	159055
scalar geant_cost_network.node[18].content_store 	decision_ratio[18] 	0.00052784044137515
scalar geant_cost_network.node[18].content_store 	correction_factor[18] 	0.0027225701061802
scalar geant_cost_network.node[18].content_store 	xi[18] 	1
scalar geant_cost_network.node[19].core_layer 	interests[19] 	0
scalar geant_cost_network.node[19].core_layer 	data[19] 	0
scalar geant_cost_network.node[19].content_store 	p_hit[19] 	-nan
scalar geant_cost_network.node[19].content_store 	hits[19] 	0
scalar geant_cost_network.node[19].content_store 	misses[19] 	0
scalar geant_cost_network.node[19].content_store 	decision_yes[19] 	0
scalar geant_cost_network.node[19].content_store 	decision_no[19] 	0
scalar geant_cost_network.node[19].content_store 	decision_ratio[19] 	0
scalar geant_cost_network.node[19].content_store 	correction_factor[19] 	0.0027225701061802
scalar geant_cost_network.node[19].content_store 	xi[19] 	1
scalar geant_cost_network.node[20].core_layer 	interests[20] 	200373
scalar geant_cost_network.node[20].core_layer 	data[20] 	172230
scalar geant_cost_network.node[20].content_store 	p_hit[20] 	0.1314548367295
scalar geant_cost_network.node[20].content_store 	hits[20] 	26340
scalar geant_cost_network.node[20].content_store 	misses[20] 	174033
scalar geant_cost_network.node[20].content_store 	decision_yes[20] 	847
scalar geant_cost_network.node[20].content_store 	decision_no[20] 	171383
scalar geant_cost_network.node[20].content_store 	decision_ratio[20] 	0.0049178424200197
scalar geant_cost_network.node[20].content_store 	correction_factor[20] 	0.0027225701061802
scalar geant_cost_network.node[20].content_store 	xi[20] 	1
scalar geant_cost_network.node[21].core_layer 	interests[21] 	144254
scalar geant_cost_network.node[21].core_layer 	data[21] 	131248
scalar geant_cost_network.node[21].content_store 	p_hit[21] 	0.090160411496388
scalar geant_cost_network.node[21].content_store 	hits[21] 	13006
scalar geant_cost_network.node[21].content_store 	misses[21] 	131248
scalar geant_cost_network.node[21].content_store 	decision_yes[21] 	3626
scalar geant_cost_network.node[21].content_store 	decision_no[21] 	127622
scalar geant_cost_network.node[21].content_store 	decision_ratio[21] 	0.027627087650859
scalar geant_cost_network.node[21].content_store 	correction_factor[21] 	0.0027225701061802
scalar geant_cost_network.node[21].content_store 	xi[21] 	1
scalar geant_cost_network.node[22].core_layer 	interests[22] 	392164
scalar geant_cost_network.node[22].core_layer 	repo_load[22] 	392164
scalar geant_cost_network.node[22].core_layer 	data[22] 	0
scalar geant_cost_network.node[22].content_store 	p_hit[22] 	0
scalar geant_cost_network.node[22].content_store 	hits[22] 	0
scalar geant_cost_network.node[22].content_store 	misses[22] 	392164
scalar geant_cost_network.node[22].content_store 	decision_yes[22] 	0
scalar geant_cost_network.node[22].content_store 	decision_no[22] 	392164
scalar geant_cost_network.node[22].content_store 	decision_ratio[22] 	0
scalar geant_cost_network.node[23].core_layer 	interests[23] 	133213
scalar geant_cost_network.node[23].core_layer 	repo_load[23] 	133213
scalar geant_cost_network.node[23].core_layer 	data[23] 	0
scalar geant_cost_network.node[23].content_store 	p_hit[23] 	0
scalar geant_cost_network.node[23].content_store 	hits[23] 	0
scalar geant_cost_network.node[23].content_store 	misses[23] 	133213
scalar geant_cost_network.node[23].content_store 	decision_yes[23] 	0
scalar geant_cost_network.node[23].content_store 	decision_no[23] 	133213
scalar geant_cost_network.node[23].content_store 	decision_ratio[23] 	0
scalar geant_cost_network.node[24].core_layer 	interests[24] 	131248
scalar geant_cost_network.node[24].core_layer 	repo_load[24] 	131248
scalar geant_cost_network.node[24].core_layer 	data[24] 	0
scalar geant_cost_network.node[24].content_store 	p_hit[24] 	0
scalar geant_cost_network.node[24].content_store 	hits[24] 	0
scalar geant_cost_network.node[24].content_store 	misses[24] 	131248
scalar geant_cost_network.node[24].content_store 	decision_yes[24] 	0
scalar geant_cost_network.node[24].content_store 	decision_no[24] 	131248
scalar geant_cost_network.node[24].content_store 	decision_ratio[24] 	0
scalar geant_cost_network.client[5] 	hdistance[5] 	3.662099713068
scalar geant_cost_network.client[5] 	downloads[5] 	178091
scalar geant_cost_network.client[5] 	avg_time[5] 	0.009663337516
scalar geant_cost_network.client[5] 	interests_sent[5] 	179831
scalar geant_cost_network.client[9] 	hdistance[9] 	3.6450527535457
scalar geant_cost_network.client[9] 	downloads[9] 	179514
scalar geant_cost_network.client[9] 	avg_time[9] 	0.005113877657
scalar geant_cost_network.client[9] 	interests_sent[9] 	180142
scalar geant_cost_network.client[10] 	hdistance[10] 	4.6016553421135
scalar geant_cost_network.client[10] 	downloads[10] 	178815
scalar geant_cost_network.client[10] 	avg_time[10] 	0.006988541507
scalar geant_cost_network.client[10] 	interests_sent[10] 	179894
scalar geant_cost_network.client[12] 	hdistance[12] 	4.086888640179
scalar geant_cost_network.client[12] 	downloads[12] 	178700
scalar geant_cost_network.client[12] 	avg_time[12] 	0.006355500578
scalar geant_cost_network.client[12] 	interests_sent[12] 	179717
scalar geant_cost_network.client[20] 	hdistance[20] 	4.2736672432772
scalar geant_cost_network.client[20] 	downloads[20] 	178052
scalar geant_cost_network.client[20] 	avg_time[20] 	0.008182901562
scalar geant_cost_network.client[20] 	interests_sent[20] 	179855
