version 2
run General-2493-20140423-19:34:58-28578
attr D costprob0.1
attr F nrr
attr R lru
attr a 0
attr configname General
attr csize 2
attr ctlg 10^3
attr datetime 20140423-19:34:58
attr experiment General
attr inifile omnetpp.ini
attr iterationvars "$net=simple_scenario, $rep=7, $priceratiovalue=10, $a=0, $ctlg=10^3, $F=nrr, $ttl=1000, $D=costprob0.1, $R=lru, $csize=2"
attr iterationvars2 "$net=simple_scenario, $rep=7, $priceratiovalue=10, $a=0, $ctlg=10^3, $F=nrr, $ttl=1000, $D=costprob0.1, $R=lru, $csize=2, $repetition=0"
attr measurement "$net=simple_scenario, $rep=7, $priceratiovalue=10, $a=0, $ctlg=10^3, $F=nrr, $ttl=1000, $D=costprob0.1, $R=lru, $csize=2"
attr net simple_scenario
attr network networks.${net=simple_scenario}_network
attr priceratiovalue 10
attr processid 28578
attr rep 7
attr repetition 0
attr replication #0
attr resultdir results
attr runnumber 2493
attr seedset 7
attr ttl 1000

scalar . 	a 	0
scalar . 	csize 	2
scalar . 	priceratiovalue 	10
scalar . 	rep 	7
scalar . 	ttl 	1000
scalar simple_scenario_network.content_distribution 	repo-0 	3
scalar simple_scenario_network.content_distribution 	repo-1 	4
scalar simple_scenario_network.content_distribution 	client-0 	0
scalar simple_scenario_network.content_distribution 	repo-0_card 	505
scalar simple_scenario_network.content_distribution 	repo-1_card 	495
scalar simple_scenario_network.statistics 	p_hit 	0.0021438052728723
scalar simple_scenario_network.statistics 	interests 	108032.2
scalar simple_scenario_network.statistics 	data 	71917.2
scalar simple_scenario_network.statistics 	hdistance 	2.9849259310536
scalar simple_scenario_network.statistics 	avg_time 	0.00199981709
scalar simple_scenario_network.statistics 	downloads 	180575
scalar simple_scenario_network.statistics 	total_cost 	88626
scalar simple_scenario_network.node[0].core_layer 	interests[0] 	180575
scalar simple_scenario_network.node[0].core_layer 	data[0] 	180169
scalar simple_scenario_network.node[0].core_layer 	repo_int[0] 	179417
scalar simple_scenario_network.node[0].content_store 	p_hit[0] 	0.0022483732521113
scalar simple_scenario_network.node[0].content_store 	hits[0] 	406
scalar simple_scenario_network.node[0].content_store 	misses[0] 	180169
scalar simple_scenario_network.node[1].core_layer 	interests[1] 	91455
scalar simple_scenario_network.node[1].core_layer 	data[1] 	91030
scalar simple_scenario_network.node[1].content_store 	p_hit[1] 	0.004647094199333
scalar simple_scenario_network.node[1].content_store 	hits[1] 	425
scalar simple_scenario_network.node[1].content_store 	misses[1] 	91030
scalar simple_scenario_network.node[2].core_layer 	interests[2] 	88714
scalar simple_scenario_network.node[2].core_layer 	data[2] 	88387
scalar simple_scenario_network.node[2].content_store 	p_hit[2] 	0.0036860022093469
scalar simple_scenario_network.node[2].content_store 	hits[2] 	327
scalar simple_scenario_network.node[2].content_store 	misses[2] 	88387
scalar simple_scenario_network.node[3].core_layer 	interests[3] 	91030
scalar simple_scenario_network.node[3].core_layer 	repo_load[3] 	91030
scalar simple_scenario_network.node[3].core_layer 	data[3] 	0
scalar simple_scenario_network.node[3].content_store 	p_hit[3] 	0
scalar simple_scenario_network.node[3].content_store 	hits[3] 	0
scalar simple_scenario_network.node[3].content_store 	misses[3] 	91030
scalar simple_scenario_network.node[4].core_layer 	interests[4] 	88387
scalar simple_scenario_network.node[4].core_layer 	repo_load[4] 	88387
scalar simple_scenario_network.node[4].core_layer 	data[4] 	0
scalar simple_scenario_network.node[4].content_store 	p_hit[4] 	0
scalar simple_scenario_network.node[4].content_store 	hits[4] 	0
scalar simple_scenario_network.node[4].content_store 	misses[4] 	88387
scalar simple_scenario_network.client[0] 	hdistance[0] 	2.9849259310536
scalar simple_scenario_network.client[0] 	downloads[0] 	180575
scalar simple_scenario_network.client[0] 	avg_time[0] 	0.00199981709
