version 2
run General-5373-20140423-20:47:46-32592
attr D costprob0.1
attr F nrr
attr R lru
attr a 0
attr configname General
attr csize 2
attr ctlg 10^3
attr datetime 20140423-20:47:46
attr experiment General
attr inifile omnetpp.ini
attr iterationvars "$net=simple_scenario, $rep=15, $priceratiovalue=10, $a=0, $ctlg=10^3, $F=nrr, $ttl=1000, $D=costprob0.1, $R=lru, $csize=2"
attr iterationvars2 "$net=simple_scenario, $rep=15, $priceratiovalue=10, $a=0, $ctlg=10^3, $F=nrr, $ttl=1000, $D=costprob0.1, $R=lru, $csize=2, $repetition=0"
attr measurement "$net=simple_scenario, $rep=15, $priceratiovalue=10, $a=0, $ctlg=10^3, $F=nrr, $ttl=1000, $D=costprob0.1, $R=lru, $csize=2"
attr net simple_scenario
attr network networks.${net=simple_scenario}_network
attr priceratiovalue 10
attr processid 32592
attr rep 15
attr repetition 0
attr replication #0
attr resultdir results
attr runnumber 5373
attr seedset 15
attr ttl 1000

scalar . 	a 	0
scalar . 	csize 	2
scalar . 	priceratiovalue 	10
scalar . 	rep 	15
scalar . 	ttl 	1000
scalar simple_scenario_network.content_distribution 	repo-0 	3
scalar simple_scenario_network.content_distribution 	repo-1 	4
scalar simple_scenario_network.content_distribution 	client-0 	0
scalar simple_scenario_network.content_distribution 	repo-0_card 	472
scalar simple_scenario_network.content_distribution 	repo-1_card 	528
scalar simple_scenario_network.statistics 	p_hit 	0.0018595209696179
scalar simple_scenario_network.statistics 	interests 	107984.8
scalar simple_scenario_network.statistics 	data 	71902
scalar simple_scenario_network.statistics 	hdistance 	2.9871296019156
scalar simple_scenario_network.statistics 	avg_time 	0.001999760525
scalar simple_scenario_network.statistics 	downloads 	180414
scalar simple_scenario_network.statistics 	total_cost 	93503
scalar simple_scenario_network.node[0].core_layer 	interests[0] 	180414
scalar simple_scenario_network.node[0].core_layer 	data[0] 	180100
scalar simple_scenario_network.node[0].core_layer 	repo_int[0] 	179410
scalar simple_scenario_network.node[0].content_store 	p_hit[0] 	0.0017404414291574
scalar simple_scenario_network.node[0].content_store 	hits[0] 	314
scalar simple_scenario_network.node[0].content_store 	misses[0] 	180100
scalar simple_scenario_network.node[1].core_layer 	interests[1] 	85435
scalar simple_scenario_network.node[1].core_layer 	data[1] 	85063
scalar simple_scenario_network.node[1].content_store 	p_hit[1] 	0.0043541873939252
scalar simple_scenario_network.node[1].content_store 	hits[1] 	372
scalar simple_scenario_network.node[1].content_store 	misses[1] 	85063
scalar simple_scenario_network.node[2].core_layer 	interests[2] 	94665
scalar simple_scenario_network.node[2].core_layer 	data[2] 	94347
scalar simple_scenario_network.node[2].content_store 	p_hit[2] 	0.0033592140706703
scalar simple_scenario_network.node[2].content_store 	hits[2] 	318
scalar simple_scenario_network.node[2].content_store 	misses[2] 	94347
scalar simple_scenario_network.node[3].core_layer 	interests[3] 	85063
scalar simple_scenario_network.node[3].core_layer 	repo_load[3] 	85063
scalar simple_scenario_network.node[3].core_layer 	data[3] 	0
scalar simple_scenario_network.node[3].content_store 	p_hit[3] 	0
scalar simple_scenario_network.node[3].content_store 	hits[3] 	0
scalar simple_scenario_network.node[3].content_store 	misses[3] 	85063
scalar simple_scenario_network.node[4].core_layer 	interests[4] 	94347
scalar simple_scenario_network.node[4].core_layer 	repo_load[4] 	94347
scalar simple_scenario_network.node[4].core_layer 	data[4] 	0
scalar simple_scenario_network.node[4].content_store 	p_hit[4] 	0
scalar simple_scenario_network.node[4].content_store 	hits[4] 	0
scalar simple_scenario_network.node[4].content_store 	misses[4] 	94347
scalar simple_scenario_network.client[0] 	hdistance[0] 	2.9871296019156
scalar simple_scenario_network.client[0] 	downloads[0] 	180414
scalar simple_scenario_network.client[0] 	avg_time[0] 	0.001999760525
