version 2
run General-333-20140423-18:40:09-26118
attr D costprob0.1
attr F nrr
attr R lru
attr a 0
attr configname General
attr csize 2
attr ctlg 10^3
attr datetime 20140423-18:40:09
attr experiment General
attr inifile omnetpp.ini
attr iterationvars "$net=simple_scenario, $rep=1, $priceratiovalue=10, $a=0, $ctlg=10^3, $F=nrr, $ttl=1000, $D=costprob0.1, $R=lru, $csize=2"
attr iterationvars2 "$net=simple_scenario, $rep=1, $priceratiovalue=10, $a=0, $ctlg=10^3, $F=nrr, $ttl=1000, $D=costprob0.1, $R=lru, $csize=2, $repetition=0"
attr measurement "$net=simple_scenario, $rep=1, $priceratiovalue=10, $a=0, $ctlg=10^3, $F=nrr, $ttl=1000, $D=costprob0.1, $R=lru, $csize=2"
attr net simple_scenario
attr network networks.${net=simple_scenario}_network
attr priceratiovalue 10
attr processid 26118
attr rep 1
attr repetition 0
attr replication #0
attr resultdir results
attr runnumber 333
attr seedset 1
attr ttl 1000

scalar . 	a 	0
scalar . 	csize 	2
scalar . 	priceratiovalue 	10
scalar . 	rep 	1
scalar . 	ttl 	1000
scalar simple_scenario_network.content_distribution 	repo-0 	3
scalar simple_scenario_network.content_distribution 	repo-1 	4
scalar simple_scenario_network.content_distribution 	client-0 	0
scalar simple_scenario_network.content_distribution 	repo-0_card 	522
scalar simple_scenario_network.content_distribution 	repo-1_card 	478
scalar simple_scenario_network.statistics 	p_hit 	0.0019203537023563
scalar simple_scenario_network.statistics 	interests 	107480.2
scalar simple_scenario_network.statistics 	data 	71560.4
scalar simple_scenario_network.statistics 	hdistance 	2.9864809937695
scalar simple_scenario_network.statistics 	avg_time 	0.001999812203
scalar simple_scenario_network.statistics 	downloads 	179599
scalar simple_scenario_network.statistics 	total_cost 	85884
scalar simple_scenario_network.node[0].core_layer 	interests[0] 	179599
scalar simple_scenario_network.node[0].core_layer 	data[0] 	179235
scalar simple_scenario_network.node[0].core_layer 	repo_int[0] 	178567
scalar simple_scenario_network.node[0].content_store 	p_hit[0] 	0.0020267373426355
scalar simple_scenario_network.node[0].content_store 	hits[0] 	364
scalar simple_scenario_network.node[0].content_store 	misses[0] 	179235
scalar simple_scenario_network.node[1].core_layer 	interests[1] 	93765
scalar simple_scenario_network.node[1].core_layer 	data[1] 	93437
scalar simple_scenario_network.node[1].content_store 	p_hit[1] 	0.0034981069695515
scalar simple_scenario_network.node[1].content_store 	hits[1] 	328
scalar simple_scenario_network.node[1].content_store 	misses[1] 	93437
scalar simple_scenario_network.node[2].core_layer 	interests[2] 	85470
scalar simple_scenario_network.node[2].core_layer 	data[2] 	85130
scalar simple_scenario_network.node[2].content_store 	p_hit[2] 	0.003978003978004
scalar simple_scenario_network.node[2].content_store 	hits[2] 	340
scalar simple_scenario_network.node[2].content_store 	misses[2] 	85130
scalar simple_scenario_network.node[3].core_layer 	interests[3] 	93437
scalar simple_scenario_network.node[3].core_layer 	repo_load[3] 	93437
scalar simple_scenario_network.node[3].core_layer 	data[3] 	0
scalar simple_scenario_network.node[3].content_store 	p_hit[3] 	0
scalar simple_scenario_network.node[3].content_store 	hits[3] 	0
scalar simple_scenario_network.node[3].content_store 	misses[3] 	93437
scalar simple_scenario_network.node[4].core_layer 	interests[4] 	85130
scalar simple_scenario_network.node[4].core_layer 	repo_load[4] 	85130
scalar simple_scenario_network.node[4].core_layer 	data[4] 	0
scalar simple_scenario_network.node[4].content_store 	p_hit[4] 	0
scalar simple_scenario_network.node[4].content_store 	hits[4] 	0
scalar simple_scenario_network.node[4].content_store 	misses[4] 	85130
scalar simple_scenario_network.client[0] 	hdistance[0] 	2.9864809937695
scalar simple_scenario_network.client[0] 	downloads[0] 	179599
scalar simple_scenario_network.client[0] 	avg_time[0] 	0.001999812203
