version 2
run General-6375-20140425-09:35:02-19570
attr D prob_cache
attr F nrr
attr R lru
attr a 1.2
attr configname General
attr csize 9
attr ctlg 10^3
attr datetime 20140425-09:35:02
attr experiment General
attr inifile omnetpp.ini
attr iterationvars "$net=one_cache_scenario, $rep=16, $priceratiovalue=2, $a=1.2, $ctlg=10^3, $F=nrr, $ttl=1000, $D=prob_cache, $R=lru, $csize=9"
attr iterationvars2 "$net=one_cache_scenario, $rep=16, $priceratiovalue=2, $a=1.2, $ctlg=10^3, $F=nrr, $ttl=1000, $D=prob_cache, $R=lru, $csize=9, $repetition=0"
attr measurement "$net=one_cache_scenario, $rep=16, $priceratiovalue=2, $a=1.2, $ctlg=10^3, $F=nrr, $ttl=1000, $D=prob_cache, $R=lru, $csize=9"
attr net one_cache_scenario
attr network networks.${net=one_cache_scenario}_network
attr priceratiovalue 2
attr processid 19570
attr rep 16
attr repetition 0
attr replication #0
attr resultdir results
attr runnumber 6375
attr seedset 16
attr ttl 1000

scalar . 	a 	1.2
scalar . 	csize 	9
scalar . 	priceratiovalue 	2
scalar . 	rep 	16
scalar . 	ttl 	1000
scalar one_cache_scenario_network.content_distribution 	repo-0 	3
scalar one_cache_scenario_network.content_distribution 	repo-1 	4
scalar one_cache_scenario_network.content_distribution 	client-0 	0
scalar one_cache_scenario_network.content_distribution 	repo-0_card 	518
scalar one_cache_scenario_network.content_distribution 	repo-1_card 	482
scalar one_cache_scenario_network.statistics 	p_hit 	0.22387651080208
scalar one_cache_scenario_network.statistics 	interests 	74513.4
scalar one_cache_scenario_network.statistics 	data 	38554.4
scalar one_cache_scenario_network.statistics 	hdistance 	1.0721766456242
scalar one_cache_scenario_network.statistics 	avg_time 	0
scalar one_cache_scenario_network.statistics 	downloads 	179795
scalar one_cache_scenario_network.statistics 	total_cost 	46753
scalar one_cache_scenario_network.statistics 	interests_sent 	179795
scalar one_cache_scenario_network.node[0].core_layer 	interests[0] 	179795
scalar one_cache_scenario_network.node[0].core_layer 	data[0] 	96386
scalar one_cache_scenario_network.node[0].core_layer 	repo_int[0] 	96386
scalar one_cache_scenario_network.node[0].content_store 	p_hit[0] 	0.46391167718791
scalar one_cache_scenario_network.node[0].content_store 	hits[0] 	83409
scalar one_cache_scenario_network.node[0].content_store 	misses[0] 	96386
scalar one_cache_scenario_network.node[0].content_store 	decision_yes[0] 	9640
scalar one_cache_scenario_network.node[0].content_store 	decision_no[0] 	86746
scalar one_cache_scenario_network.node[1].core_layer 	interests[1] 	52510
scalar one_cache_scenario_network.node[1].core_layer 	data[1] 	52510
scalar one_cache_scenario_network.node[1].content_store 	p_hit[1] 	0
scalar one_cache_scenario_network.node[1].content_store 	hits[1] 	0
scalar one_cache_scenario_network.node[1].content_store 	misses[1] 	52510
scalar one_cache_scenario_network.node[1].content_store 	decision_yes[1] 	0
scalar one_cache_scenario_network.node[1].content_store 	decision_no[1] 	52510
scalar one_cache_scenario_network.node[2].core_layer 	interests[2] 	43876
scalar one_cache_scenario_network.node[2].core_layer 	data[2] 	43876
scalar one_cache_scenario_network.node[2].content_store 	p_hit[2] 	0
scalar one_cache_scenario_network.node[2].content_store 	hits[2] 	0
scalar one_cache_scenario_network.node[2].content_store 	misses[2] 	43876
scalar one_cache_scenario_network.node[2].content_store 	decision_yes[2] 	0
scalar one_cache_scenario_network.node[2].content_store 	decision_no[2] 	43876
scalar one_cache_scenario_network.node[3].core_layer 	interests[3] 	52510
scalar one_cache_scenario_network.node[3].core_layer 	repo_load[3] 	52510
scalar one_cache_scenario_network.node[3].core_layer 	data[3] 	0
scalar one_cache_scenario_network.node[3].content_store 	p_hit[3] 	0
scalar one_cache_scenario_network.node[3].content_store 	hits[3] 	0
scalar one_cache_scenario_network.node[3].content_store 	misses[3] 	52510
scalar one_cache_scenario_network.node[3].content_store 	decision_yes[3] 	0
scalar one_cache_scenario_network.node[3].content_store 	decision_no[3] 	52510
scalar one_cache_scenario_network.node[4].core_layer 	interests[4] 	43876
scalar one_cache_scenario_network.node[4].core_layer 	repo_load[4] 	43876
scalar one_cache_scenario_network.node[4].core_layer 	data[4] 	0
scalar one_cache_scenario_network.node[4].content_store 	p_hit[4] 	0
scalar one_cache_scenario_network.node[4].content_store 	hits[4] 	0
scalar one_cache_scenario_network.node[4].content_store 	misses[4] 	43876
scalar one_cache_scenario_network.node[4].content_store 	decision_yes[4] 	0
scalar one_cache_scenario_network.node[4].content_store 	decision_no[4] 	43876
scalar one_cache_scenario_network.client[0] 	hdistance[0] 	1.0721766456242
scalar one_cache_scenario_network.client[0] 	downloads[0] 	179795
scalar one_cache_scenario_network.client[0] 	avg_time[0] 	0
scalar one_cache_scenario_network.client[0] 	interests_sent[0] 	179795
