version 2
run General-15-20140703-16:49:22-9722
attr D costprobtailperf
attr F spr
attr R lru
attr a 1
attr configname General
attr csize 1e3
attr ctlg 1e5
attr datetime 20140703-16:49:22
attr experiment General
attr inifile omnetpp.ini
attr iterationvars "$net=geant_cost, $rep=4, $priceratiovalue=10, $weights=0.333_0.333_0.334, $lambda=100, $a=1, $ctlg=1e5, $F=spr, $ttl=1000, $D=costprobtailperf, $xi=1, $R=lru, $csize=1e3, $pricebits=0, $window=60, $variance=0.05, $mytime=1800"
attr iterationvars2 "$net=geant_cost, $rep=4, $priceratiovalue=10, $weights=0.333_0.333_0.334, $lambda=100, $a=1, $ctlg=1e5, $F=spr, $ttl=1000, $D=costprobtailperf, $xi=1, $R=lru, $csize=1e3, $pricebits=0, $window=60, $variance=0.05, $mytime=1800, $repetition=0"
attr lambda 100
attr measurement "$net=geant_cost, $rep=4, $priceratiovalue=10, $weights=0.333_0.333_0.334, $lambda=100, $a=1, $ctlg=1e5, $F=spr, $ttl=1000, $D=costprobtailperf, $xi=1, $R=lru, $csize=1e3, $pricebits=0, $window=60, $variance=0.05, $mytime=1800"
attr mytime 1800
attr net geant_cost
attr network "networks.${net=geant_cost, abilene_cost}_network"
attr pricebits 0
attr priceratiovalue 10
attr processid 9722
attr rep 4
attr repetition 0
attr replication #0
attr resultdir results
attr runnumber 15
attr seedset 4
attr ttl 1000
attr variance 0.05
attr weights 0.333_0.333_0.334
attr window 60
attr xi 1

scalar . 	a 	1
scalar . 	csize 	1e3
scalar . 	ctlg 	1e5
scalar . 	lambda 	100
scalar . 	mytime 	1800
scalar . 	pricebits 	0
scalar . 	priceratiovalue 	10
scalar . 	rep 	4
scalar . 	ttl 	1000
scalar . 	variance 	0.05
scalar . 	window 	60
scalar . 	xi 	1
scalar geant_cost_network.content_distribution 	repo-0 	22
scalar geant_cost_network.content_distribution 	repo-1 	23
scalar geant_cost_network.content_distribution 	repo-2 	24
scalar geant_cost_network.content_distribution 	client-0 	20
scalar geant_cost_network.content_distribution 	client-1 	10
scalar geant_cost_network.content_distribution 	client-2 	12
scalar geant_cost_network.content_distribution 	client-3 	9
scalar geant_cost_network.content_distribution 	client-4 	5
scalar geant_cost_network.content_distribution 	repo-0_card 	33272
scalar geant_cost_network.content_distribution 	repo-1_card 	33152
scalar geant_cost_network.content_distribution 	repo-2_card 	33576
scalar geant_cost_network.statistics 	repo_popularity[0] 	0.28234107170654
scalar geant_cost_network.statistics 	repo_popularity[1] 	0.30413978820018
scalar geant_cost_network.statistics 	repo_popularity[2] 	0.41351914009327
scalar geant_cost_network.statistics 	stabilization_time 	36060
scalar geant_cost_network.node[7].face$o[4].channel 	price[7] 	0
scalar geant_cost_network.node[7].face$o[4].channel 	represented_price[7] 	0
scalar geant_cost_network.node[8].face$o[3].channel 	price[8] 	0
scalar geant_cost_network.node[8].face$o[3].channel 	represented_price[8] 	0
scalar geant_cost_network.node[21].face$o[5].channel 	price[21] 	0
scalar geant_cost_network.node[21].face$o[5].channel 	represented_price[21] 	0
scalar geant_cost_network.node[22].face$o[1].channel 	price[22] 	0
scalar geant_cost_network.node[22].face$o[1].channel 	represented_price[22] 	0
scalar geant_cost_network.node[23].face$o[1].channel 	price[23] 	1
scalar geant_cost_network.node[23].face$o[1].channel 	represented_price[23] 	1
scalar geant_cost_network.node[24].face$o[1].channel 	price[24] 	10
scalar geant_cost_network.node[24].face$o[1].channel 	represented_price[24] 	10
scalar geant_cost_network.statistics 	p_hit 	0.11505189643366
scalar geant_cost_network.statistics 	interests 	124309.12
scalar geant_cost_network.statistics 	data 	88325.12
scalar geant_cost_network.statistics 	hdistance 	3.0593634358597
scalar geant_cost_network.statistics 	avg_time 	0.004715037585
scalar geant_cost_network.statistics 	downloads 	898838
scalar geant_cost_network.statistics 	total_cost 	1717624
scalar geant_cost_network.statistics 	total_replicas 	100000
scalar geant_cost_network.statistics 	inner_hit 	0.39799941702509
scalar geant_cost_network.statistics 	interests_sent 	899598
scalar geant_cost_network.node[0].core_layer 	interests[0] 	0
scalar geant_cost_network.node[0].core_layer 	data[0] 	0
scalar geant_cost_network.node[0].core_layer 	repo_int[0] 	541101
scalar geant_cost_network.node[0].content_store 	p_hit[0] 	-nan
scalar geant_cost_network.node[0].content_store 	hits[0] 	0
scalar geant_cost_network.node[0].content_store 	misses[0] 	0
scalar geant_cost_network.node[0].content_store 	decision_yes[0] 	0
scalar geant_cost_network.node[0].content_store 	decision_no[0] 	0
scalar geant_cost_network.node[0].content_store 	decision_ratio[0] 	0
scalar geant_cost_network.node[0].content_store 	correction_factor[0] 	1.160286292087e-316
scalar geant_cost_network.node[0].content_store 	xi[0] 	1
scalar geant_cost_network.node[1].core_layer 	interests[1] 	0
scalar geant_cost_network.node[1].core_layer 	data[1] 	0
scalar geant_cost_network.node[1].content_store 	p_hit[1] 	-nan
scalar geant_cost_network.node[1].content_store 	hits[1] 	0
scalar geant_cost_network.node[1].content_store 	misses[1] 	0
scalar geant_cost_network.node[1].content_store 	decision_yes[1] 	0
scalar geant_cost_network.node[1].content_store 	decision_no[1] 	0
scalar geant_cost_network.node[1].content_store 	decision_ratio[1] 	0
scalar geant_cost_network.node[1].content_store 	correction_factor[1] 	1.160286292087e-316
scalar geant_cost_network.node[1].content_store 	xi[1] 	1
scalar geant_cost_network.node[2].core_layer 	interests[2] 	0
scalar geant_cost_network.node[2].core_layer 	data[2] 	0
scalar geant_cost_network.node[2].content_store 	p_hit[2] 	-nan
scalar geant_cost_network.node[2].content_store 	hits[2] 	0
scalar geant_cost_network.node[2].content_store 	misses[2] 	0
scalar geant_cost_network.node[2].content_store 	decision_yes[2] 	0
scalar geant_cost_network.node[2].content_store 	decision_no[2] 	0
scalar geant_cost_network.node[2].content_store 	decision_ratio[2] 	0
scalar geant_cost_network.node[2].content_store 	correction_factor[2] 	1.1620720429574e-316
scalar geant_cost_network.node[2].content_store 	xi[2] 	1
scalar geant_cost_network.node[3].core_layer 	interests[3] 	159130
scalar geant_cost_network.node[3].core_layer 	data[3] 	149134
scalar geant_cost_network.node[3].content_store 	p_hit[3] 	0.062816565072582
scalar geant_cost_network.node[3].content_store 	hits[3] 	9996
scalar geant_cost_network.node[3].content_store 	misses[3] 	149134
scalar geant_cost_network.node[3].content_store 	decision_yes[3] 	0
scalar geant_cost_network.node[3].content_store 	decision_no[3] 	149134
scalar geant_cost_network.node[3].content_store 	decision_ratio[3] 	0
scalar geant_cost_network.node[3].content_store 	correction_factor[3] 	1.1622451635597e-316
scalar geant_cost_network.node[3].content_store 	xi[3] 	1
scalar geant_cost_network.node[4].core_layer 	interests[4] 	231728
scalar geant_cost_network.node[4].core_layer 	data[4] 	225701
scalar geant_cost_network.node[4].content_store 	p_hit[4] 	0.025970102879238
scalar geant_cost_network.node[4].content_store 	hits[4] 	6018
scalar geant_cost_network.node[4].content_store 	misses[4] 	225710
scalar geant_cost_network.node[4].content_store 	decision_yes[4] 	0
scalar geant_cost_network.node[4].content_store 	decision_no[4] 	225701
scalar geant_cost_network.node[4].content_store 	decision_ratio[4] 	0
scalar geant_cost_network.node[4].content_store 	correction_factor[4] 	1.162513935271e-316
scalar geant_cost_network.node[4].content_store 	xi[4] 	1
scalar geant_cost_network.node[5].core_layer 	interests[5] 	180216
scalar geant_cost_network.node[5].core_layer 	data[5] 	146798
scalar geant_cost_network.node[5].content_store 	p_hit[5] 	0.18313579260443
scalar geant_cost_network.node[5].content_store 	hits[5] 	33004
scalar geant_cost_network.node[5].content_store 	misses[5] 	147212
scalar geant_cost_network.node[5].content_store 	decision_yes[5] 	0
scalar geant_cost_network.node[5].content_store 	decision_no[5] 	146798
scalar geant_cost_network.node[5].content_store 	decision_ratio[5] 	0
scalar geant_cost_network.node[5].content_store 	correction_factor[5] 	1.1627661063766e-316
scalar geant_cost_network.node[5].content_store 	xi[5] 	1
scalar geant_cost_network.node[6].core_layer 	interests[6] 	103736
scalar geant_cost_network.node[6].core_layer 	data[6] 	87425
scalar geant_cost_network.node[6].content_store 	p_hit[6] 	0.15723567517545
scalar geant_cost_network.node[6].content_store 	hits[6] 	16311
scalar geant_cost_network.node[6].content_store 	misses[6] 	87425
scalar geant_cost_network.node[6].content_store 	decision_yes[6] 	0
scalar geant_cost_network.node[6].content_store 	decision_no[6] 	87425
scalar geant_cost_network.node[6].content_store 	decision_ratio[6] 	0
scalar geant_cost_network.node[6].content_store 	correction_factor[6] 	1.1604677129922e-316
scalar geant_cost_network.node[6].content_store 	xi[6] 	1
scalar geant_cost_network.node[7].core_layer 	interests[7] 	311907
scalar geant_cost_network.node[7].core_layer 	data[7] 	287543
scalar geant_cost_network.node[7].content_store 	p_hit[7] 	0.07808096644192
scalar geant_cost_network.node[7].content_store 	hits[7] 	24354
scalar geant_cost_network.node[7].content_store 	misses[7] 	287553
scalar geant_cost_network.node[7].content_store 	decision_yes[7] 	0
scalar geant_cost_network.node[7].content_store 	decision_no[7] 	287543
scalar geant_cost_network.node[7].content_store 	decision_ratio[7] 	0
scalar geant_cost_network.node[7].content_store 	correction_factor[7] 	1.1609878653041e-316
scalar geant_cost_network.node[7].content_store 	xi[7] 	1
scalar geant_cost_network.node[8].core_layer 	interests[8] 	278588
scalar geant_cost_network.node[8].core_layer 	data[8] 	262298
scalar geant_cost_network.node[8].content_store 	p_hit[8] 	0.058469855126567
scalar geant_cost_network.node[8].content_store 	hits[8] 	16289
scalar geant_cost_network.node[8].content_store 	misses[8] 	262299
scalar geant_cost_network.node[8].content_store 	decision_yes[8] 	0
scalar geant_cost_network.node[8].content_store 	decision_no[8] 	262298
scalar geant_cost_network.node[8].content_store 	decision_ratio[8] 	0
scalar geant_cost_network.node[8].content_store 	correction_factor[8] 	1.1624147268893e-316
scalar geant_cost_network.node[8].content_store 	xi[8] 	1
scalar geant_cost_network.node[9].core_layer 	interests[9] 	362363
scalar geant_cost_network.node[9].core_layer 	data[9] 	296150
scalar geant_cost_network.node[9].content_store 	p_hit[9] 	0.18214608003577
scalar geant_cost_network.node[9].content_store 	hits[9] 	66003
scalar geant_cost_network.node[9].content_store 	misses[9] 	296360
scalar geant_cost_network.node[9].content_store 	decision_yes[9] 	0
scalar geant_cost_network.node[9].content_store 	decision_no[9] 	296150
scalar geant_cost_network.node[9].content_store 	decision_ratio[9] 	0
scalar geant_cost_network.node[9].content_store 	correction_factor[9] 	1.1637534471633e-316
scalar geant_cost_network.node[9].content_store 	xi[9] 	1
scalar geant_cost_network.node[10].core_layer 	interests[10] 	179602
scalar geant_cost_network.node[10].core_layer 	data[10] 	136829
scalar geant_cost_network.node[10].content_store 	p_hit[10] 	0.23750849099676
scalar geant_cost_network.node[10].content_store 	hits[10] 	42657
scalar geant_cost_network.node[10].content_store 	misses[10] 	136945
scalar geant_cost_network.node[10].content_store 	decision_yes[10] 	0
scalar geant_cost_network.node[10].content_store 	decision_no[10] 	136829
scalar geant_cost_network.node[10].content_store 	decision_ratio[10] 	0
scalar geant_cost_network.node[10].content_store 	correction_factor[10] 	1.1639969227136e-316
scalar geant_cost_network.node[10].content_store 	xi[10] 	1
scalar geant_cost_network.node[11].core_layer 	interests[11] 	0
scalar geant_cost_network.node[11].core_layer 	data[11] 	0
scalar geant_cost_network.node[11].content_store 	p_hit[11] 	-nan
scalar geant_cost_network.node[11].content_store 	hits[11] 	0
scalar geant_cost_network.node[11].content_store 	misses[11] 	0
scalar geant_cost_network.node[11].content_store 	decision_yes[11] 	0
scalar geant_cost_network.node[11].content_store 	decision_no[11] 	0
scalar geant_cost_network.node[11].content_store 	decision_ratio[11] 	0
scalar geant_cost_network.node[11].content_store 	correction_factor[11] 	1.1642427697789e-316
scalar geant_cost_network.node[11].content_store 	xi[11] 	1
scalar geant_cost_network.node[12].core_layer 	interests[12] 	264334
scalar geant_cost_network.node[12].core_layer 	data[12] 	204670
scalar geant_cost_network.node[12].content_store 	p_hit[12] 	0.22531342922212
scalar geant_cost_network.node[12].content_store 	hits[12] 	59558
scalar geant_cost_network.node[12].content_store 	misses[12] 	204776
scalar geant_cost_network.node[12].content_store 	decision_yes[12] 	0
scalar geant_cost_network.node[12].content_store 	decision_no[12] 	204670
scalar geant_cost_network.node[12].content_store 	decision_ratio[12] 	0
scalar geant_cost_network.node[12].content_store 	correction_factor[12] 	1.1627182808221e-316
scalar geant_cost_network.node[12].content_store 	xi[12] 	1
scalar geant_cost_network.node[13].core_layer 	interests[13] 	0
scalar geant_cost_network.node[13].core_layer 	data[13] 	0
scalar geant_cost_network.node[13].content_store 	p_hit[13] 	-nan
scalar geant_cost_network.node[13].content_store 	hits[13] 	0
scalar geant_cost_network.node[13].content_store 	misses[13] 	0
scalar geant_cost_network.node[13].content_store 	decision_yes[13] 	0
scalar geant_cost_network.node[13].content_store 	decision_no[13] 	0
scalar geant_cost_network.node[13].content_store 	decision_ratio[13] 	0
scalar geant_cost_network.node[13].content_store 	correction_factor[13] 	1.16474236896e-316
scalar geant_cost_network.node[13].content_store 	xi[13] 	1
scalar geant_cost_network.node[14].core_layer 	interests[14] 	43062
scalar geant_cost_network.node[14].core_layer 	data[14] 	36169
scalar geant_cost_network.node[14].content_store 	p_hit[14] 	0.16007152477823
scalar geant_cost_network.node[14].content_store 	hits[14] 	6893
scalar geant_cost_network.node[14].content_store 	misses[14] 	36169
scalar geant_cost_network.node[14].content_store 	decision_yes[14] 	0
scalar geant_cost_network.node[14].content_store 	decision_no[14] 	36169
scalar geant_cost_network.node[14].content_store 	decision_ratio[14] 	0
scalar geant_cost_network.node[14].content_store 	correction_factor[14] 	0
scalar geant_cost_network.node[14].content_store 	xi[14] 	1
scalar geant_cost_network.node[15].core_layer 	interests[15] 	0
scalar geant_cost_network.node[15].core_layer 	data[15] 	0
scalar geant_cost_network.node[15].content_store 	p_hit[15] 	-nan
scalar geant_cost_network.node[15].content_store 	hits[15] 	0
scalar geant_cost_network.node[15].content_store 	misses[15] 	0
scalar geant_cost_network.node[15].content_store 	decision_yes[15] 	0
scalar geant_cost_network.node[15].content_store 	decision_no[15] 	0
scalar geant_cost_network.node[15].content_store 	decision_ratio[15] 	0
scalar geant_cost_network.node[15].content_store 	correction_factor[15] 	0
scalar geant_cost_network.node[15].content_store 	xi[15] 	1
scalar geant_cost_network.node[16].core_layer 	interests[16] 	0
scalar geant_cost_network.node[16].core_layer 	data[16] 	0
scalar geant_cost_network.node[16].content_store 	p_hit[16] 	-nan
scalar geant_cost_network.node[16].content_store 	hits[16] 	0
scalar geant_cost_network.node[16].content_store 	misses[16] 	0
scalar geant_cost_network.node[16].content_store 	decision_yes[16] 	0
scalar geant_cost_network.node[16].content_store 	decision_no[16] 	0
scalar geant_cost_network.node[16].content_store 	decision_ratio[16] 	0
scalar geant_cost_network.node[16].content_store 	correction_factor[16] 	0
scalar geant_cost_network.node[16].content_store 	xi[16] 	1
scalar geant_cost_network.node[17].core_layer 	interests[17] 	0
scalar geant_cost_network.node[17].core_layer 	data[17] 	0
scalar geant_cost_network.node[17].content_store 	p_hit[17] 	-nan
scalar geant_cost_network.node[17].content_store 	hits[17] 	0
scalar geant_cost_network.node[17].content_store 	misses[17] 	0
scalar geant_cost_network.node[17].content_store 	decision_yes[17] 	0
scalar geant_cost_network.node[17].content_store 	decision_no[17] 	0
scalar geant_cost_network.node[17].content_store 	decision_ratio[17] 	0
scalar geant_cost_network.node[17].content_store 	correction_factor[17] 	0
scalar geant_cost_network.node[17].content_store 	xi[17] 	1
scalar geant_cost_network.node[18].core_layer 	interests[18] 	92556
scalar geant_cost_network.node[18].core_layer 	data[18] 	82595
scalar geant_cost_network.node[18].content_store 	p_hit[18] 	0.10763213622023
scalar geant_cost_network.node[18].content_store 	hits[18] 	9962
scalar geant_cost_network.node[18].content_store 	misses[18] 	82594
scalar geant_cost_network.node[18].content_store 	decision_yes[18] 	0
scalar geant_cost_network.node[18].content_store 	decision_no[18] 	82595
scalar geant_cost_network.node[18].content_store 	decision_ratio[18] 	0
scalar geant_cost_network.node[18].content_store 	correction_factor[18] 	0
scalar geant_cost_network.node[18].content_store 	xi[18] 	1
scalar geant_cost_network.node[19].core_layer 	interests[19] 	0
scalar geant_cost_network.node[19].core_layer 	data[19] 	0
scalar geant_cost_network.node[19].content_store 	p_hit[19] 	-nan
scalar geant_cost_network.node[19].content_store 	hits[19] 	0
scalar geant_cost_network.node[19].content_store 	misses[19] 	0
scalar geant_cost_network.node[19].content_store 	decision_yes[19] 	0
scalar geant_cost_network.node[19].content_store 	decision_no[19] 	0
scalar geant_cost_network.node[19].content_store 	decision_ratio[19] 	0
scalar geant_cost_network.node[19].content_store 	correction_factor[19] 	0
scalar geant_cost_network.node[19].content_store 	xi[19] 	1
scalar geant_cost_network.node[20].core_layer 	interests[20] 	179609
scalar geant_cost_network.node[20].core_layer 	data[20] 	137541
scalar geant_cost_network.node[20].content_store 	p_hit[20] 	0.2337522061812
scalar geant_cost_network.node[20].content_store 	hits[20] 	41984
scalar geant_cost_network.node[20].content_store 	misses[20] 	137625
scalar geant_cost_network.node[20].content_store 	decision_yes[20] 	0
scalar geant_cost_network.node[20].content_store 	decision_no[20] 	137541
scalar geant_cost_network.node[20].content_store 	decision_ratio[20] 	0
scalar geant_cost_network.node[20].content_store 	correction_factor[20] 	0
scalar geant_cost_network.node[20].content_store 	xi[20] 	1
scalar geant_cost_network.node[21].core_layer 	interests[21] 	179796
scalar geant_cost_network.node[21].core_layer 	data[21] 	155275
scalar geant_cost_network.node[21].content_store 	p_hit[21] 	0.1363823444348
scalar geant_cost_network.node[21].content_store 	hits[21] 	24521
scalar geant_cost_network.node[21].content_store 	misses[21] 	155275
scalar geant_cost_network.node[21].content_store 	decision_yes[21] 	0
scalar geant_cost_network.node[21].content_store 	decision_no[21] 	155275
scalar geant_cost_network.node[21].content_store 	decision_ratio[21] 	0
scalar geant_cost_network.node[21].content_store 	correction_factor[21] 	0
scalar geant_cost_network.node[21].content_store 	xi[21] 	1
scalar geant_cost_network.node[22].core_layer 	interests[22] 	220952
scalar geant_cost_network.node[22].core_layer 	repo_load[22] 	220952
scalar geant_cost_network.node[22].core_layer 	data[22] 	0
scalar geant_cost_network.node[22].content_store 	p_hit[22] 	0
scalar geant_cost_network.node[22].content_store 	hits[22] 	0
scalar geant_cost_network.node[22].content_store 	misses[22] 	220952
scalar geant_cost_network.node[22].content_store 	decision_yes[22] 	0
scalar geant_cost_network.node[22].content_store 	decision_no[22] 	220952
scalar geant_cost_network.node[22].content_store 	decision_ratio[22] 	0
scalar geant_cost_network.node[23].core_layer 	interests[23] 	164874
scalar geant_cost_network.node[23].core_layer 	repo_load[23] 	164874
scalar geant_cost_network.node[23].core_layer 	data[23] 	0
scalar geant_cost_network.node[23].content_store 	p_hit[23] 	0
scalar geant_cost_network.node[23].content_store 	hits[23] 	0
scalar geant_cost_network.node[23].content_store 	misses[23] 	164874
scalar geant_cost_network.node[23].content_store 	decision_yes[23] 	0
scalar geant_cost_network.node[23].content_store 	decision_no[23] 	164874
scalar geant_cost_network.node[23].content_store 	decision_ratio[23] 	0
scalar geant_cost_network.node[24].core_layer 	interests[24] 	155275
scalar geant_cost_network.node[24].core_layer 	repo_load[24] 	155275
scalar geant_cost_network.node[24].core_layer 	data[24] 	0
scalar geant_cost_network.node[24].content_store 	p_hit[24] 	0
scalar geant_cost_network.node[24].content_store 	hits[24] 	0
scalar geant_cost_network.node[24].content_store 	misses[24] 	155275
scalar geant_cost_network.node[24].content_store 	decision_yes[24] 	0
scalar geant_cost_network.node[24].content_store 	decision_no[24] 	155275
scalar geant_cost_network.node[24].content_store 	decision_ratio[24] 	0
scalar geant_cost_network.client[5] 	hdistance[5] 	2.8787110265736
scalar geant_cost_network.client[5] 	downloads[5] 	179802
scalar geant_cost_network.client[5] 	avg_time[5] 	0.007926223339
scalar geant_cost_network.client[5] 	interests_sent[5] 	180216
scalar geant_cost_network.client[9] 	hdistance[9] 	2.7966497337794
scalar geant_cost_network.client[9] 	downloads[9] 	179926
scalar geant_cost_network.client[9] 	avg_time[9] 	0.002792477772
scalar geant_cost_network.client[9] 	interests_sent[9] 	179992
scalar geant_cost_network.client[10] 	hdistance[10] 	3.5117502200729
scalar geant_cost_network.client[10] 	downloads[10] 	179486
scalar geant_cost_network.client[10] 	avg_time[10] 	0.004256046746
scalar geant_cost_network.client[10] 	interests_sent[10] 	179602
scalar geant_cost_network.client[12] 	hdistance[12] 	3.1045202916174
scalar geant_cost_network.client[12] 	downloads[12] 	180099
scalar geant_cost_network.client[12] 	avg_time[12] 	0.003503796993
scalar geant_cost_network.client[12] 	interests_sent[12] 	180179
scalar geant_cost_network.client[20] 	hdistance[20] 	3.0051859072552
scalar geant_cost_network.client[20] 	downloads[20] 	179525
scalar geant_cost_network.client[20] 	avg_time[20] 	0.005096643077
scalar geant_cost_network.client[20] 	interests_sent[20] 	179609
