version 2
run General-428-20140502-12:50:38-15882
attr D costprob0.001
attr F nrr
attr R lru
attr a 1.2
attr configname General
attr csize 1e3
attr ctlg 1e5
attr datetime 20140502-12:50:38
attr experiment General
attr inifile omnetpp.ini
attr iterationvars "$net=three_caches_scenario_3_links, $rep=3, $priceratiovalue=10, $weights=0.333_0.333_0.334, $a=1.2, $ctlg=1e5, $F=nrr, $ttl=1000, $D=costprob0.001, $xi=1, $R=lru, $csize=1e3"
attr iterationvars2 "$net=three_caches_scenario_3_links, $rep=3, $priceratiovalue=10, $weights=0.333_0.333_0.334, $a=1.2, $ctlg=1e5, $F=nrr, $ttl=1000, $D=costprob0.001, $xi=1, $R=lru, $csize=1e3, $repetition=0"
attr measurement "$net=three_caches_scenario_3_links, $rep=3, $priceratiovalue=10, $weights=0.333_0.333_0.334, $a=1.2, $ctlg=1e5, $F=nrr, $ttl=1000, $D=costprob0.001, $xi=1, $R=lru, $csize=1e3"
attr net three_caches_scenario_3_links
attr network networks.${net=three_caches_scenario_3_links}_network
attr priceratiovalue 10
attr processid 15882
attr rep 3
attr repetition 0
attr replication #0
attr resultdir results
attr runnumber 428
attr seedset 3
attr ttl 1000
attr weights 0.333_0.333_0.334
attr xi 1

scalar . 	a 	1.2
scalar . 	csize 	1e3
scalar . 	ctlg 	1e5
scalar . 	priceratiovalue 	10
scalar . 	rep 	3
scalar . 	ttl 	1000
scalar . 	xi 	1
scalar three_caches_scenario_3_links_network.content_distribution 	repo-0 	4
scalar three_caches_scenario_3_links_network.content_distribution 	repo-1 	5
scalar three_caches_scenario_3_links_network.content_distribution 	repo-2 	6
scalar three_caches_scenario_3_links_network.content_distribution 	client-0 	0
scalar three_caches_scenario_3_links_network.content_distribution 	repo-0_card 	33329
scalar three_caches_scenario_3_links_network.content_distribution 	repo-1_card 	33051
scalar three_caches_scenario_3_links_network.content_distribution 	repo-2_card 	33620
scalar three_caches_scenario_3_links_network.statistics 	p_hit 	0.15066544496621
scalar three_caches_scenario_3_links_network.statistics 	interests 	62364.285714286
scalar three_caches_scenario_3_links_network.statistics 	data 	36794.428571429
scalar three_caches_scenario_3_links_network.statistics 	hdistance 	1.5665599561984
scalar three_caches_scenario_3_links_network.statistics 	avg_time 	0
scalar three_caches_scenario_3_links_network.statistics 	downloads 	178989
scalar three_caches_scenario_3_links_network.statistics 	total_cost 	96753
scalar three_caches_scenario_3_links_network.statistics 	total_replicas 	100000
scalar three_caches_scenario_3_links_network.statistics 	interests_sent 	178989
scalar three_caches_scenario_3_links_network.node[0].core_layer 	interests[0] 	178989
scalar three_caches_scenario_3_links_network.node[0].core_layer 	data[0] 	144345
scalar three_caches_scenario_3_links_network.node[0].core_layer 	repo_int[0] 	113216
scalar three_caches_scenario_3_links_network.node[0].content_store 	p_hit[0] 	0.19355379380856
scalar three_caches_scenario_3_links_network.node[0].content_store 	hits[0] 	34644
scalar three_caches_scenario_3_links_network.node[0].content_store 	misses[0] 	144345
scalar three_caches_scenario_3_links_network.node[0].content_store 	decision_yes[0] 	21
scalar three_caches_scenario_3_links_network.node[0].content_store 	decision_no[0] 	144324
scalar three_caches_scenario_3_links_network.node[1].core_layer 	interests[1] 	90380
scalar three_caches_scenario_3_links_network.node[1].core_layer 	data[1] 	90380
scalar three_caches_scenario_3_links_network.node[1].content_store 	p_hit[1] 	0
scalar three_caches_scenario_3_links_network.node[1].content_store 	hits[1] 	0
scalar three_caches_scenario_3_links_network.node[1].content_store 	misses[1] 	90380
scalar three_caches_scenario_3_links_network.node[1].content_store 	decision_yes[1] 	0
scalar three_caches_scenario_3_links_network.node[1].content_store 	decision_no[1] 	90380
scalar three_caches_scenario_3_links_network.node[2].core_layer 	interests[2] 	25630
scalar three_caches_scenario_3_links_network.node[2].core_layer 	data[2] 	14623
scalar three_caches_scenario_3_links_network.node[2].content_store 	p_hit[2] 	0.42945766679672
scalar three_caches_scenario_3_links_network.node[2].content_store 	hits[2] 	11007
scalar three_caches_scenario_3_links_network.node[2].content_store 	misses[2] 	14623
scalar three_caches_scenario_3_links_network.node[2].content_store 	decision_yes[2] 	1
scalar three_caches_scenario_3_links_network.node[2].content_store 	decision_no[2] 	14622
scalar three_caches_scenario_3_links_network.node[3].core_layer 	interests[3] 	28335
scalar three_caches_scenario_3_links_network.node[3].core_layer 	data[3] 	8213
scalar three_caches_scenario_3_links_network.node[3].content_store 	p_hit[3] 	0.71014646197283
scalar three_caches_scenario_3_links_network.node[3].content_store 	hits[3] 	20122
scalar three_caches_scenario_3_links_network.node[3].content_store 	misses[3] 	8213
scalar three_caches_scenario_3_links_network.node[3].content_store 	decision_yes[3] 	14
scalar three_caches_scenario_3_links_network.node[3].content_store 	decision_no[3] 	8199
scalar three_caches_scenario_3_links_network.node[4].core_layer 	interests[4] 	90380
scalar three_caches_scenario_3_links_network.node[4].core_layer 	repo_load[4] 	90380
scalar three_caches_scenario_3_links_network.node[4].core_layer 	data[4] 	0
scalar three_caches_scenario_3_links_network.node[4].content_store 	p_hit[4] 	0
scalar three_caches_scenario_3_links_network.node[4].content_store 	hits[4] 	0
scalar three_caches_scenario_3_links_network.node[4].content_store 	misses[4] 	90380
scalar three_caches_scenario_3_links_network.node[4].content_store 	decision_yes[4] 	0
scalar three_caches_scenario_3_links_network.node[4].content_store 	decision_no[4] 	90380
scalar three_caches_scenario_3_links_network.node[5].core_layer 	interests[5] 	14623
scalar three_caches_scenario_3_links_network.node[5].core_layer 	repo_load[5] 	14623
scalar three_caches_scenario_3_links_network.node[5].core_layer 	data[5] 	0
scalar three_caches_scenario_3_links_network.node[5].content_store 	p_hit[5] 	0
scalar three_caches_scenario_3_links_network.node[5].content_store 	hits[5] 	0
scalar three_caches_scenario_3_links_network.node[5].content_store 	misses[5] 	14623
scalar three_caches_scenario_3_links_network.node[5].content_store 	decision_yes[5] 	0
scalar three_caches_scenario_3_links_network.node[5].content_store 	decision_no[5] 	14623
scalar three_caches_scenario_3_links_network.node[6].core_layer 	interests[6] 	8213
scalar three_caches_scenario_3_links_network.node[6].core_layer 	repo_load[6] 	8213
scalar three_caches_scenario_3_links_network.node[6].core_layer 	data[6] 	0
scalar three_caches_scenario_3_links_network.node[6].content_store 	p_hit[6] 	0
scalar three_caches_scenario_3_links_network.node[6].content_store 	hits[6] 	0
scalar three_caches_scenario_3_links_network.node[6].content_store 	misses[6] 	8213
scalar three_caches_scenario_3_links_network.node[6].content_store 	decision_yes[6] 	0
scalar three_caches_scenario_3_links_network.node[6].content_store 	decision_no[6] 	8213
scalar three_caches_scenario_3_links_network.client[0] 	hdistance[0] 	1.5665599561984
scalar three_caches_scenario_3_links_network.client[0] 	downloads[0] 	178989
scalar three_caches_scenario_3_links_network.client[0] 	avg_time[0] 	0
scalar three_caches_scenario_3_links_network.client[0] 	interests_sent[0] 	178989
