version 2
run General-450-20140502-10:52:27-13752
attr D costprob0.05
attr F nrr
attr R lru
attr a 1
attr configname General
attr csize 1e3
attr ctlg 1e5
attr datetime 20140502-10:52:27
attr experiment General
attr inifile omnetpp.ini
attr iterationvars "$net=three_caches_scenario_3_links, $rep=4, $priceratiovalue=1, $weights=0.333_0.333_0.334, $a=1, $ctlg=1e5, $F=nrr, $ttl=1000, $D=costprob0.05, $xi=1, $R=lru, $csize=1e3"
attr iterationvars2 "$net=three_caches_scenario_3_links, $rep=4, $priceratiovalue=1, $weights=0.333_0.333_0.334, $a=1, $ctlg=1e5, $F=nrr, $ttl=1000, $D=costprob0.05, $xi=1, $R=lru, $csize=1e3, $repetition=0"
attr measurement "$net=three_caches_scenario_3_links, $rep=4, $priceratiovalue=1, $weights=0.333_0.333_0.334, $a=1, $ctlg=1e5, $F=nrr, $ttl=1000, $D=costprob0.05, $xi=1, $R=lru, $csize=1e3"
attr net three_caches_scenario_3_links
attr network networks.${net=three_caches_scenario_3_links}_network
attr priceratiovalue 1
attr processid 13752
attr rep 4
attr repetition 0
attr replication #0
attr resultdir results
attr runnumber 450
attr seedset 4
attr ttl 1000
attr weights 0.333_0.333_0.334
attr xi 1

scalar . 	a 	1
scalar . 	csize 	1e3
scalar . 	ctlg 	1e5
scalar . 	priceratiovalue 	1
scalar . 	rep 	4
scalar . 	ttl 	1000
scalar . 	xi 	1
scalar three_caches_scenario_3_links_network.content_distribution 	repo-0 	4
scalar three_caches_scenario_3_links_network.content_distribution 	repo-1 	5
scalar three_caches_scenario_3_links_network.content_distribution 	repo-2 	6
scalar three_caches_scenario_3_links_network.content_distribution 	client-0 	0
scalar three_caches_scenario_3_links_network.content_distribution 	repo-0_card 	33584
scalar three_caches_scenario_3_links_network.content_distribution 	repo-1_card 	33055
scalar three_caches_scenario_3_links_network.content_distribution 	repo-2_card 	33361
scalar three_caches_scenario_3_links_network.statistics 	p_hit 	0.1311949607527
scalar three_caches_scenario_3_links_network.statistics 	interests 	64499.428571429
scalar three_caches_scenario_3_links_network.statistics 	data 	38806.142857143
scalar three_caches_scenario_3_links_network.statistics 	hdistance 	1.7847186313267
scalar three_caches_scenario_3_links_network.statistics 	avg_time 	0
scalar three_caches_scenario_3_links_network.statistics 	downloads 	179853
scalar three_caches_scenario_3_links_network.statistics 	total_cost 	49344
scalar three_caches_scenario_3_links_network.statistics 	total_replicas 	100000
scalar three_caches_scenario_3_links_network.statistics 	interests_sent 	179853
scalar three_caches_scenario_3_links_network.node[0].core_layer 	interests[0] 	179853
scalar three_caches_scenario_3_links_network.node[0].core_layer 	data[0] 	151024
scalar three_caches_scenario_3_links_network.node[0].core_layer 	repo_int[0] 	120619
scalar three_caches_scenario_3_links_network.node[0].content_store 	p_hit[0] 	0.16029201625772
scalar three_caches_scenario_3_links_network.node[0].content_store 	hits[0] 	28829
scalar three_caches_scenario_3_links_network.node[0].content_store 	misses[0] 	151024
scalar three_caches_scenario_3_links_network.node[0].content_store 	decision_yes[0] 	3830
scalar three_caches_scenario_3_links_network.node[0].content_store 	decision_no[0] 	147194
scalar three_caches_scenario_3_links_network.node[1].core_layer 	interests[1] 	71275
scalar three_caches_scenario_3_links_network.node[1].core_layer 	data[1] 	71275
scalar three_caches_scenario_3_links_network.node[1].content_store 	p_hit[1] 	0
scalar three_caches_scenario_3_links_network.node[1].content_store 	hits[1] 	0
scalar three_caches_scenario_3_links_network.node[1].content_store 	misses[1] 	71275
scalar three_caches_scenario_3_links_network.node[1].content_store 	decision_yes[1] 	0
scalar three_caches_scenario_3_links_network.node[1].content_store 	decision_no[1] 	71275
scalar three_caches_scenario_3_links_network.node[2].core_layer 	interests[2] 	44153
scalar three_caches_scenario_3_links_network.node[2].core_layer 	data[2] 	24536
scalar three_caches_scenario_3_links_network.node[2].content_store 	p_hit[2] 	0.44429597082871
scalar three_caches_scenario_3_links_network.node[2].content_store 	hits[2] 	19617
scalar three_caches_scenario_3_links_network.node[2].content_store 	misses[2] 	24536
scalar three_caches_scenario_3_links_network.node[2].content_store 	decision_yes[2] 	1875
scalar three_caches_scenario_3_links_network.node[2].content_store 	decision_no[2] 	22661
scalar three_caches_scenario_3_links_network.node[3].core_layer 	interests[3] 	35596
scalar three_caches_scenario_3_links_network.node[3].core_layer 	data[3] 	24808
scalar three_caches_scenario_3_links_network.node[3].content_store 	p_hit[3] 	0.30306776042252
scalar three_caches_scenario_3_links_network.node[3].content_store 	hits[3] 	10788
scalar three_caches_scenario_3_links_network.node[3].content_store 	misses[3] 	24808
scalar three_caches_scenario_3_links_network.node[3].content_store 	decision_yes[3] 	1893
scalar three_caches_scenario_3_links_network.node[3].content_store 	decision_no[3] 	22915
scalar three_caches_scenario_3_links_network.node[4].core_layer 	interests[4] 	71275
scalar three_caches_scenario_3_links_network.node[4].core_layer 	repo_load[4] 	71275
scalar three_caches_scenario_3_links_network.node[4].core_layer 	data[4] 	0
scalar three_caches_scenario_3_links_network.node[4].content_store 	p_hit[4] 	0
scalar three_caches_scenario_3_links_network.node[4].content_store 	hits[4] 	0
scalar three_caches_scenario_3_links_network.node[4].content_store 	misses[4] 	71275
scalar three_caches_scenario_3_links_network.node[4].content_store 	decision_yes[4] 	0
scalar three_caches_scenario_3_links_network.node[4].content_store 	decision_no[4] 	71275
scalar three_caches_scenario_3_links_network.node[5].core_layer 	interests[5] 	24536
scalar three_caches_scenario_3_links_network.node[5].core_layer 	repo_load[5] 	24536
scalar three_caches_scenario_3_links_network.node[5].core_layer 	data[5] 	0
scalar three_caches_scenario_3_links_network.node[5].content_store 	p_hit[5] 	0
scalar three_caches_scenario_3_links_network.node[5].content_store 	hits[5] 	0
scalar three_caches_scenario_3_links_network.node[5].content_store 	misses[5] 	24536
scalar three_caches_scenario_3_links_network.node[5].content_store 	decision_yes[5] 	0
scalar three_caches_scenario_3_links_network.node[5].content_store 	decision_no[5] 	24536
scalar three_caches_scenario_3_links_network.node[6].core_layer 	interests[6] 	24808
scalar three_caches_scenario_3_links_network.node[6].core_layer 	repo_load[6] 	24808
scalar three_caches_scenario_3_links_network.node[6].core_layer 	data[6] 	0
scalar three_caches_scenario_3_links_network.node[6].content_store 	p_hit[6] 	0
scalar three_caches_scenario_3_links_network.node[6].content_store 	hits[6] 	0
scalar three_caches_scenario_3_links_network.node[6].content_store 	misses[6] 	24808
scalar three_caches_scenario_3_links_network.node[6].content_store 	decision_yes[6] 	0
scalar three_caches_scenario_3_links_network.node[6].content_store 	decision_no[6] 	24808
scalar three_caches_scenario_3_links_network.client[0] 	hdistance[0] 	1.7847186313267
scalar three_caches_scenario_3_links_network.client[0] 	downloads[0] 	179853
scalar three_caches_scenario_3_links_network.client[0] 	avg_time[0] 	0
scalar three_caches_scenario_3_links_network.client[0] 	interests_sent[0] 	179853
