version 2
run General-162-20140502-10:52:48-13759
attr D costprob0.05
attr F nrr
attr R lru
attr a 1
attr configname General
attr csize 1e3
attr ctlg 1e5
attr datetime 20140502-10:52:48
attr experiment General
attr inifile omnetpp.ini
attr iterationvars "$net=three_caches_scenario_3_links, $rep=2, $priceratiovalue=1, $weights=0.333_0.333_0.334, $a=1, $ctlg=1e5, $F=nrr, $ttl=1000, $D=costprob0.05, $xi=1, $R=lru, $csize=1e3"
attr iterationvars2 "$net=three_caches_scenario_3_links, $rep=2, $priceratiovalue=1, $weights=0.333_0.333_0.334, $a=1, $ctlg=1e5, $F=nrr, $ttl=1000, $D=costprob0.05, $xi=1, $R=lru, $csize=1e3, $repetition=0"
attr measurement "$net=three_caches_scenario_3_links, $rep=2, $priceratiovalue=1, $weights=0.333_0.333_0.334, $a=1, $ctlg=1e5, $F=nrr, $ttl=1000, $D=costprob0.05, $xi=1, $R=lru, $csize=1e3"
attr net three_caches_scenario_3_links
attr network networks.${net=three_caches_scenario_3_links}_network
attr priceratiovalue 1
attr processid 13759
attr rep 2
attr repetition 0
attr replication #0
attr resultdir results
attr runnumber 162
attr seedset 2
attr ttl 1000
attr weights 0.333_0.333_0.334
attr xi 1

scalar . 	a 	1
scalar . 	csize 	1e3
scalar . 	ctlg 	1e5
scalar . 	priceratiovalue 	1
scalar . 	rep 	2
scalar . 	ttl 	1000
scalar . 	xi 	1
scalar three_caches_scenario_3_links_network.content_distribution 	repo-0 	4
scalar three_caches_scenario_3_links_network.content_distribution 	repo-1 	5
scalar three_caches_scenario_3_links_network.content_distribution 	repo-2 	6
scalar three_caches_scenario_3_links_network.content_distribution 	client-0 	0
scalar three_caches_scenario_3_links_network.content_distribution 	repo-0_card 	33264
scalar three_caches_scenario_3_links_network.content_distribution 	repo-1_card 	33272
scalar three_caches_scenario_3_links_network.content_distribution 	repo-2_card 	33464
scalar three_caches_scenario_3_links_network.statistics 	p_hit 	0.12666768266133
scalar three_caches_scenario_3_links_network.statistics 	interests 	65617.142857143
scalar three_caches_scenario_3_links_network.statistics 	data 	39914.857142857
scalar three_caches_scenario_3_links_network.statistics 	hdistance 	1.8329498210276
scalar three_caches_scenario_3_links_network.statistics 	avg_time 	0
scalar three_caches_scenario_3_links_network.statistics 	downloads 	179916
scalar three_caches_scenario_3_links_network.statistics 	total_cost 	50373
scalar three_caches_scenario_3_links_network.statistics 	total_replicas 	100000
scalar three_caches_scenario_3_links_network.statistics 	interests_sent 	179916
scalar three_caches_scenario_3_links_network.node[0].core_layer 	interests[0] 	179916
scalar three_caches_scenario_3_links_network.node[0].core_layer 	data[0] 	157669
scalar three_caches_scenario_3_links_network.node[0].core_layer 	repo_int[0] 	121735
scalar three_caches_scenario_3_links_network.node[0].content_store 	p_hit[0] 	0.12365214878054
scalar three_caches_scenario_3_links_network.node[0].content_store 	hits[0] 	22247
scalar three_caches_scenario_3_links_network.node[0].content_store 	misses[0] 	157669
scalar three_caches_scenario_3_links_network.node[0].content_store 	decision_yes[0] 	3816
scalar three_caches_scenario_3_links_network.node[0].content_store 	decision_no[0] 	153853
scalar three_caches_scenario_3_links_network.node[1].core_layer 	interests[1] 	71362
scalar three_caches_scenario_3_links_network.node[1].core_layer 	data[1] 	71362
scalar three_caches_scenario_3_links_network.node[1].content_store 	p_hit[1] 	0
scalar three_caches_scenario_3_links_network.node[1].content_store 	hits[1] 	0
scalar three_caches_scenario_3_links_network.node[1].content_store 	misses[1] 	71362
scalar three_caches_scenario_3_links_network.node[1].content_store 	decision_yes[1] 	0
scalar three_caches_scenario_3_links_network.node[1].content_store 	decision_no[1] 	71362
scalar three_caches_scenario_3_links_network.node[2].core_layer 	interests[2] 	43189
scalar three_caches_scenario_3_links_network.node[2].core_layer 	data[2] 	24915
scalar three_caches_scenario_3_links_network.node[2].content_store 	p_hit[2] 	0.42311699738359
scalar three_caches_scenario_3_links_network.node[2].content_store 	hits[2] 	18274
scalar three_caches_scenario_3_links_network.node[2].content_store 	misses[2] 	24915
scalar three_caches_scenario_3_links_network.node[2].content_store 	decision_yes[2] 	1942
scalar three_caches_scenario_3_links_network.node[2].content_store 	decision_no[2] 	22973
scalar three_caches_scenario_3_links_network.node[3].core_layer 	interests[3] 	43118
scalar three_caches_scenario_3_links_network.node[3].core_layer 	data[3] 	25458
scalar three_caches_scenario_3_links_network.node[3].content_store 	p_hit[3] 	0.40957372790946
scalar three_caches_scenario_3_links_network.node[3].content_store 	hits[3] 	17660
scalar three_caches_scenario_3_links_network.node[3].content_store 	misses[3] 	25458
scalar three_caches_scenario_3_links_network.node[3].content_store 	decision_yes[3] 	1822
scalar three_caches_scenario_3_links_network.node[3].content_store 	decision_no[3] 	23636
scalar three_caches_scenario_3_links_network.node[4].core_layer 	interests[4] 	71362
scalar three_caches_scenario_3_links_network.node[4].core_layer 	repo_load[4] 	71362
scalar three_caches_scenario_3_links_network.node[4].core_layer 	data[4] 	0
scalar three_caches_scenario_3_links_network.node[4].content_store 	p_hit[4] 	0
scalar three_caches_scenario_3_links_network.node[4].content_store 	hits[4] 	0
scalar three_caches_scenario_3_links_network.node[4].content_store 	misses[4] 	71362
scalar three_caches_scenario_3_links_network.node[4].content_store 	decision_yes[4] 	0
scalar three_caches_scenario_3_links_network.node[4].content_store 	decision_no[4] 	71362
scalar three_caches_scenario_3_links_network.node[5].core_layer 	interests[5] 	24915
scalar three_caches_scenario_3_links_network.node[5].core_layer 	repo_load[5] 	24915
scalar three_caches_scenario_3_links_network.node[5].core_layer 	data[5] 	0
scalar three_caches_scenario_3_links_network.node[5].content_store 	p_hit[5] 	0
scalar three_caches_scenario_3_links_network.node[5].content_store 	hits[5] 	0
scalar three_caches_scenario_3_links_network.node[5].content_store 	misses[5] 	24915
scalar three_caches_scenario_3_links_network.node[5].content_store 	decision_yes[5] 	0
scalar three_caches_scenario_3_links_network.node[5].content_store 	decision_no[5] 	24915
scalar three_caches_scenario_3_links_network.node[6].core_layer 	interests[6] 	25458
scalar three_caches_scenario_3_links_network.node[6].core_layer 	repo_load[6] 	25458
scalar three_caches_scenario_3_links_network.node[6].core_layer 	data[6] 	0
scalar three_caches_scenario_3_links_network.node[6].content_store 	p_hit[6] 	0
scalar three_caches_scenario_3_links_network.node[6].content_store 	hits[6] 	0
scalar three_caches_scenario_3_links_network.node[6].content_store 	misses[6] 	25458
scalar three_caches_scenario_3_links_network.node[6].content_store 	decision_yes[6] 	0
scalar three_caches_scenario_3_links_network.node[6].content_store 	decision_no[6] 	25458
scalar three_caches_scenario_3_links_network.client[0] 	hdistance[0] 	1.8329498210276
scalar three_caches_scenario_3_links_network.client[0] 	downloads[0] 	179916
scalar three_caches_scenario_3_links_network.client[0] 	avg_time[0] 	0
scalar three_caches_scenario_3_links_network.client[0] 	interests_sent[0] 	179916
