version 2
run General-0-20140409-19:29:56-3239
attr D lce
attr F nrr
attr R lru
attr a 0.8
attr configname General
attr csize 10
attr ctlg 10^4
attr datetime 20140409-19:29:56
attr experiment General
attr inifile omnetpp.ini
attr iterationvars "$net=simple_scenario, $rep=0, $priceratiovalue=1, $a=0.8, $ctlg=10^4, $F=nrr, $ttl=1000, $D=lce, $R=lru, $csize=10"
attr iterationvars2 "$net=simple_scenario, $rep=0, $priceratiovalue=1, $a=0.8, $ctlg=10^4, $F=nrr, $ttl=1000, $D=lce, $R=lru, $csize=10, $repetition=0"
attr measurement "$net=simple_scenario, $rep=0, $priceratiovalue=1, $a=0.8, $ctlg=10^4, $F=nrr, $ttl=1000, $D=lce, $R=lru, $csize=10"
attr net simple_scenario
attr network networks.${net=simple_scenario}_network
attr priceratiovalue 1
attr processid 3239
attr rep 0
attr repetition 0
attr replication #0
attr resultdir results
attr runnumber 0
attr seedset 0
attr ttl 1000

scalar . 	a 	0.8
scalar . 	csize 	10
scalar . 	priceratiovalue 	1
scalar . 	rep 	0
scalar . 	ttl 	1000
scalar simple_scenario_network.content_distribution 	repo-0 	3
scalar simple_scenario_network.content_distribution 	repo-1 	4
scalar simple_scenario_network.content_distribution 	client-0 	0
scalar simple_scenario_network.content_distribution 	repo-0_card 	4915
scalar simple_scenario_network.content_distribution 	repo-1_card 	5085
scalar simple_scenario_network.statistics 	p_hit 	0.017183266644627
scalar simple_scenario_network.statistics 	interests 	105265.2
scalar simple_scenario_network.statistics 	data 	69230.8
scalar simple_scenario_network.statistics 	hdistance 	2.8710454454633
scalar simple_scenario_network.statistics 	avg_time 	0.001999361922
scalar simple_scenario_network.statistics 	downloads 	180172
scalar simple_scenario_network.statistics 	total_cost 	171128
scalar simple_scenario_network.node[0].core_layer 	interests[0] 	180172
scalar simple_scenario_network.node[0].core_layer 	data[0] 	175026
scalar simple_scenario_network.node[0].core_layer 	repo_int[0] 	171128
scalar simple_scenario_network.node[0].content_store 	p_hit[0] 	0.02856159669649
scalar simple_scenario_network.node[0].content_store 	hits[0] 	5146
scalar simple_scenario_network.node[0].content_store 	misses[0] 	175026
scalar simple_scenario_network.node[1].core_layer 	interests[1] 	83216
scalar simple_scenario_network.node[1].core_layer 	data[1] 	81122
scalar simple_scenario_network.node[1].content_store 	p_hit[1] 	0.025163430109594
scalar simple_scenario_network.node[1].content_store 	hits[1] 	2094
scalar simple_scenario_network.node[1].content_store 	misses[1] 	81122
scalar simple_scenario_network.node[2].core_layer 	interests[2] 	91810
scalar simple_scenario_network.node[2].core_layer 	data[2] 	90006
scalar simple_scenario_network.node[2].content_store 	p_hit[2] 	0.019649275678031
scalar simple_scenario_network.node[2].content_store 	hits[2] 	1804
scalar simple_scenario_network.node[2].content_store 	misses[2] 	90006
scalar simple_scenario_network.node[3].core_layer 	interests[3] 	81122
scalar simple_scenario_network.node[3].core_layer 	repo_load[3] 	81122
scalar simple_scenario_network.node[3].core_layer 	data[3] 	0
scalar simple_scenario_network.node[3].content_store 	p_hit[3] 	0
scalar simple_scenario_network.node[3].content_store 	hits[3] 	0
scalar simple_scenario_network.node[3].content_store 	misses[3] 	81122
scalar simple_scenario_network.node[4].core_layer 	interests[4] 	90006
scalar simple_scenario_network.node[4].core_layer 	repo_load[4] 	90006
scalar simple_scenario_network.node[4].core_layer 	data[4] 	0
scalar simple_scenario_network.node[4].content_store 	p_hit[4] 	0
scalar simple_scenario_network.node[4].content_store 	hits[4] 	0
scalar simple_scenario_network.node[4].content_store 	misses[4] 	90006
scalar simple_scenario_network.client[0] 	hdistance[0] 	2.8710454454633
scalar simple_scenario_network.client[0] 	downloads[0] 	180172
scalar simple_scenario_network.client[0] 	avg_time[0] 	0.001999361922
