version 2
run General-505-20140422-19:49:20-27236
attr D fix0.1
attr F nrr
attr R lru
attr a 0
attr configname General
attr csize 10
attr ctlg 10^3
attr datetime 20140422-19:49:20
attr experiment General
attr inifile omnetpp.ini
attr iterationvars "$net=simple_scenario, $rep=5, $priceratiovalue=3, $a=0, $ctlg=10^3, $F=nrr, $ttl=1000, $D=fix0.1, $R=lru, $csize=10"
attr iterationvars2 "$net=simple_scenario, $rep=5, $priceratiovalue=3, $a=0, $ctlg=10^3, $F=nrr, $ttl=1000, $D=fix0.1, $R=lru, $csize=10, $repetition=0"
attr measurement "$net=simple_scenario, $rep=5, $priceratiovalue=3, $a=0, $ctlg=10^3, $F=nrr, $ttl=1000, $D=fix0.1, $R=lru, $csize=10"
attr net simple_scenario
attr network networks.${net=simple_scenario}_network
attr priceratiovalue 3
attr processid 27236
attr rep 5
attr repetition 0
attr replication #0
attr resultdir results
attr runnumber 505
attr seedset 5
attr ttl 1000

scalar . 	a 	0
scalar . 	csize 	10
scalar . 	priceratiovalue 	3
scalar . 	rep 	5
scalar . 	ttl 	1000
scalar simple_scenario_network.content_distribution 	repo-0 	3
scalar simple_scenario_network.content_distribution 	repo-1 	4
scalar simple_scenario_network.content_distribution 	client-0 	0
scalar simple_scenario_network.content_distribution 	repo-0_card 	495
scalar simple_scenario_network.content_distribution 	repo-1_card 	505
scalar simple_scenario_network.statistics 	p_hit 	0.0097106656226702
scalar simple_scenario_network.statistics 	interests 	106769.2
scalar simple_scenario_network.statistics 	data 	70711.6
scalar simple_scenario_network.statistics 	hdistance 	2.9323190246662
scalar simple_scenario_network.statistics 	avg_time 	0.001999686065
scalar simple_scenario_network.statistics 	downloads 	180287
scalar simple_scenario_network.statistics 	total_cost 	88251
scalar simple_scenario_network.node[0].core_layer 	interests[0] 	180288
scalar simple_scenario_network.node[0].core_layer 	data[0] 	178454
scalar simple_scenario_network.node[0].core_layer 	repo_int[0] 	175104
scalar simple_scenario_network.node[0].content_store 	p_hit[0] 	0.010172612708555
scalar simple_scenario_network.node[0].content_store 	hits[0] 	1834
scalar simple_scenario_network.node[0].content_store 	misses[0] 	178454
scalar simple_scenario_network.node[1].core_layer 	interests[1] 	87874
scalar simple_scenario_network.node[1].core_layer 	data[1] 	86151
scalar simple_scenario_network.node[1].content_store 	p_hit[1] 	0.019607620001366
scalar simple_scenario_network.node[1].content_store 	hits[1] 	1723
scalar simple_scenario_network.node[1].content_store 	misses[1] 	86151
scalar simple_scenario_network.node[2].core_layer 	interests[2] 	90580
scalar simple_scenario_network.node[2].core_layer 	data[2] 	88953
scalar simple_scenario_network.node[2].content_store 	p_hit[2] 	0.017962022521528
scalar simple_scenario_network.node[2].content_store 	hits[2] 	1627
scalar simple_scenario_network.node[2].content_store 	misses[2] 	88953
scalar simple_scenario_network.node[3].core_layer 	interests[3] 	86151
scalar simple_scenario_network.node[3].core_layer 	repo_load[3] 	86151
scalar simple_scenario_network.node[3].core_layer 	data[3] 	0
scalar simple_scenario_network.node[3].content_store 	p_hit[3] 	0
scalar simple_scenario_network.node[3].content_store 	hits[3] 	0
scalar simple_scenario_network.node[3].content_store 	misses[3] 	86151
scalar simple_scenario_network.node[4].core_layer 	interests[4] 	88953
scalar simple_scenario_network.node[4].core_layer 	repo_load[4] 	88953
scalar simple_scenario_network.node[4].core_layer 	data[4] 	0
scalar simple_scenario_network.node[4].content_store 	p_hit[4] 	0
scalar simple_scenario_network.node[4].content_store 	hits[4] 	0
scalar simple_scenario_network.node[4].content_store 	misses[4] 	88953
scalar simple_scenario_network.client[0] 	hdistance[0] 	2.9323190246662
scalar simple_scenario_network.client[0] 	downloads[0] 	180287
scalar simple_scenario_network.client[0] 	avg_time[0] 	0.001999686065
