version 2
run General-1825-20140422-20:17:32-28720
attr D fix0.1
attr F nrr
attr R lru
attr a 0
attr configname General
attr csize 10
attr ctlg 10^3
attr datetime 20140422-20:17:32
attr experiment General
attr inifile omnetpp.ini
attr iterationvars "$net=simple_scenario, $rep=16, $priceratiovalue=3, $a=0, $ctlg=10^3, $F=nrr, $ttl=1000, $D=fix0.1, $R=lru, $csize=10"
attr iterationvars2 "$net=simple_scenario, $rep=16, $priceratiovalue=3, $a=0, $ctlg=10^3, $F=nrr, $ttl=1000, $D=fix0.1, $R=lru, $csize=10, $repetition=0"
attr measurement "$net=simple_scenario, $rep=16, $priceratiovalue=3, $a=0, $ctlg=10^3, $F=nrr, $ttl=1000, $D=fix0.1, $R=lru, $csize=10"
attr net simple_scenario
attr network networks.${net=simple_scenario}_network
attr priceratiovalue 3
attr processid 28720
attr rep 16
attr repetition 0
attr replication #0
attr resultdir results
attr runnumber 1825
attr seedset 16
attr ttl 1000

scalar . 	a 	0
scalar . 	csize 	10
scalar . 	priceratiovalue 	3
scalar . 	rep 	16
scalar . 	ttl 	1000
scalar simple_scenario_network.content_distribution 	repo-0 	3
scalar simple_scenario_network.content_distribution 	repo-1 	4
scalar simple_scenario_network.content_distribution 	client-0 	0
scalar simple_scenario_network.content_distribution 	repo-0_card 	495
scalar simple_scenario_network.content_distribution 	repo-1_card 	505
scalar simple_scenario_network.statistics 	p_hit 	0.0097748698281224
scalar simple_scenario_network.statistics 	interests 	106436.2
scalar simple_scenario_network.statistics 	data 	70491.2
scalar simple_scenario_network.statistics 	hdistance 	2.9321407706218
scalar simple_scenario_network.statistics 	avg_time 	0.001999605513
scalar simple_scenario_network.statistics 	downloads 	179725
scalar simple_scenario_network.statistics 	total_cost 	87681
scalar simple_scenario_network.node[0].core_layer 	interests[0] 	179725
scalar simple_scenario_network.node[0].core_layer 	data[0] 	177933
scalar simple_scenario_network.node[0].core_layer 	repo_int[0] 	174523
scalar simple_scenario_network.node[0].content_store 	p_hit[0] 	0.0099707887049659
scalar simple_scenario_network.node[0].content_store 	hits[0] 	1792
scalar simple_scenario_network.node[0].content_store 	misses[0] 	177933
scalar simple_scenario_network.node[1].core_layer 	interests[1] 	88125
scalar simple_scenario_network.node[1].core_layer 	data[1] 	86421
scalar simple_scenario_network.node[1].content_store 	p_hit[1] 	0.019336170212766
scalar simple_scenario_network.node[1].content_store 	hits[1] 	1704
scalar simple_scenario_network.node[1].content_store 	misses[1] 	86421
scalar simple_scenario_network.node[2].core_layer 	interests[2] 	89808
scalar simple_scenario_network.node[2].core_layer 	data[2] 	88102
scalar simple_scenario_network.node[2].content_store 	p_hit[2] 	0.018996080527347
scalar simple_scenario_network.node[2].content_store 	hits[2] 	1706
scalar simple_scenario_network.node[2].content_store 	misses[2] 	88102
scalar simple_scenario_network.node[3].core_layer 	interests[3] 	86421
scalar simple_scenario_network.node[3].core_layer 	repo_load[3] 	86421
scalar simple_scenario_network.node[3].core_layer 	data[3] 	0
scalar simple_scenario_network.node[3].content_store 	p_hit[3] 	0
scalar simple_scenario_network.node[3].content_store 	hits[3] 	0
scalar simple_scenario_network.node[3].content_store 	misses[3] 	86421
scalar simple_scenario_network.node[4].core_layer 	interests[4] 	88102
scalar simple_scenario_network.node[4].core_layer 	repo_load[4] 	88102
scalar simple_scenario_network.node[4].core_layer 	data[4] 	0
scalar simple_scenario_network.node[4].content_store 	p_hit[4] 	0
scalar simple_scenario_network.node[4].content_store 	hits[4] 	0
scalar simple_scenario_network.node[4].content_store 	misses[4] 	88102
scalar simple_scenario_network.client[0] 	hdistance[0] 	2.9321407706218
scalar simple_scenario_network.client[0] 	downloads[0] 	179725
scalar simple_scenario_network.client[0] 	avg_time[0] 	0.001999605513
