version 2
run General-0-20140624-17:54:04-31131
attr D lce
attr F nrr
attr R lru
attr a 1
attr configname General
attr csize 1e3
attr ctlg 1e5
attr datetime 20140624-17:54:04
attr experiment General
attr inifile omnetpp.ini
attr iterationvars "$net=geant_cost, $rep=1, $priceratiovalue=10, $weights=0.333_0.333_0.334, $lambda=100, $a=1, $ctlg=1e5, $F=nrr, $ttl=1000, $D=lce, $xi=1, $R=lru, $csize=1e3, $pricebits=0, $mytime=1800"
attr iterationvars2 "$net=geant_cost, $rep=1, $priceratiovalue=10, $weights=0.333_0.333_0.334, $lambda=100, $a=1, $ctlg=1e5, $F=nrr, $ttl=1000, $D=lce, $xi=1, $R=lru, $csize=1e3, $pricebits=0, $mytime=1800, $repetition=0"
attr lambda 100
attr measurement "$net=geant_cost, $rep=1, $priceratiovalue=10, $weights=0.333_0.333_0.334, $lambda=100, $a=1, $ctlg=1e5, $F=nrr, $ttl=1000, $D=lce, $xi=1, $R=lru, $csize=1e3, $pricebits=0, $mytime=1800"
attr mytime 1800
attr net geant_cost
attr network networks.${net=geant_cost}_network
attr pricebits 0
attr priceratiovalue 10
attr processid 31131
attr rep 1
attr repetition 0
attr replication #0
attr resultdir results
attr runnumber 0
attr seedset 1
attr ttl 1000
attr weights 0.333_0.333_0.334
attr xi 1

scalar . 	a 	1
scalar . 	csize 	1e3
scalar . 	ctlg 	1e5
scalar . 	lambda 	100
scalar . 	mytime 	1800
scalar . 	pricebits 	0
scalar . 	priceratiovalue 	10
scalar . 	rep 	1
scalar . 	ttl 	1000
scalar . 	xi 	1
scalar geant_cost_network.content_distribution 	repo-0 	22
scalar geant_cost_network.content_distribution 	repo-1 	23
scalar geant_cost_network.content_distribution 	repo-2 	24
scalar geant_cost_network.content_distribution 	client-0 	20
scalar geant_cost_network.content_distribution 	client-1 	10
scalar geant_cost_network.content_distribution 	client-2 	12
scalar geant_cost_network.content_distribution 	client-3 	9
scalar geant_cost_network.content_distribution 	client-4 	5
scalar geant_cost_network.content_distribution 	repo-0_card 	33396
scalar geant_cost_network.content_distribution 	repo-1_card 	33039
scalar geant_cost_network.content_distribution 	repo-2_card 	33565
scalar geant_cost_network.statistics 	repo_popularity[0] 	0.28686251265602
scalar geant_cost_network.statistics 	repo_popularity[1] 	0.2886063426465
scalar geant_cost_network.statistics 	repo_popularity[2] 	0.42453114469748
scalar geant_cost_network.statistics 	stabilization_time 	36060
scalar geant_cost_network.node[7].face$o[4].channel 	price[7] 	0
scalar geant_cost_network.node[7].face$o[4].channel 	represented_price[7] 	0
scalar geant_cost_network.node[8].face$o[3].channel 	price[8] 	0
scalar geant_cost_network.node[8].face$o[3].channel 	represented_price[8] 	0
scalar geant_cost_network.node[21].face$o[5].channel 	price[21] 	0
scalar geant_cost_network.node[21].face$o[5].channel 	represented_price[21] 	0
scalar geant_cost_network.node[22].face$o[1].channel 	price[22] 	0
scalar geant_cost_network.node[22].face$o[1].channel 	represented_price[22] 	0
scalar geant_cost_network.node[23].face$o[1].channel 	price[23] 	1
scalar geant_cost_network.node[23].face$o[1].channel 	represented_price[23] 	1
scalar geant_cost_network.node[24].face$o[1].channel 	price[24] 	10
scalar geant_cost_network.node[24].face$o[1].channel 	represented_price[24] 	10
scalar geant_cost_network.statistics 	p_hit 	0.12661892340165
scalar geant_cost_network.statistics 	interests 	125637.84
scalar geant_cost_network.statistics 	data 	89624.36
scalar geant_cost_network.statistics 	hdistance 	3.0590907529396
scalar geant_cost_network.statistics 	avg_time 	0.007770220863
scalar geant_cost_network.statistics 	downloads 	898076
scalar geant_cost_network.statistics 	total_cost 	1844323
scalar geant_cost_network.statistics 	total_replicas 	100000
scalar geant_cost_network.statistics 	inner_hit 	0.4377458032505
scalar geant_cost_network.statistics 	interests_sent 	900331
scalar geant_cost_network.node[0].core_layer 	interests[0] 	0
scalar geant_cost_network.node[0].core_layer 	data[0] 	0
scalar geant_cost_network.node[0].core_layer 	repo_int[0] 	504947
scalar geant_cost_network.node[0].content_store 	p_hit[0] 	-nan
scalar geant_cost_network.node[0].content_store 	hits[0] 	0
scalar geant_cost_network.node[0].content_store 	misses[0] 	0
scalar geant_cost_network.node[0].content_store 	decision_yes[0] 	0
scalar geant_cost_network.node[0].content_store 	decision_no[0] 	0
scalar geant_cost_network.node[0].content_store 	decision_ratio[0] 	0
scalar geant_cost_network.node[1].core_layer 	interests[1] 	0
scalar geant_cost_network.node[1].core_layer 	data[1] 	0
scalar geant_cost_network.node[1].content_store 	p_hit[1] 	-nan
scalar geant_cost_network.node[1].content_store 	hits[1] 	0
scalar geant_cost_network.node[1].content_store 	misses[1] 	0
scalar geant_cost_network.node[1].content_store 	decision_yes[1] 	0
scalar geant_cost_network.node[1].content_store 	decision_no[1] 	0
scalar geant_cost_network.node[1].content_store 	decision_ratio[1] 	0
scalar geant_cost_network.node[2].core_layer 	interests[2] 	0
scalar geant_cost_network.node[2].core_layer 	data[2] 	0
scalar geant_cost_network.node[2].content_store 	p_hit[2] 	-nan
scalar geant_cost_network.node[2].content_store 	hits[2] 	0
scalar geant_cost_network.node[2].content_store 	misses[2] 	0
scalar geant_cost_network.node[2].content_store 	decision_yes[2] 	0
scalar geant_cost_network.node[2].content_store 	decision_no[2] 	0
scalar geant_cost_network.node[2].content_store 	decision_ratio[2] 	0
scalar geant_cost_network.node[3].core_layer 	interests[3] 	145901
scalar geant_cost_network.node[3].core_layer 	data[3] 	142220
scalar geant_cost_network.node[3].content_store 	p_hit[3] 	0.025253528167133
scalar geant_cost_network.node[3].content_store 	hits[3] 	3688
scalar geant_cost_network.node[3].content_store 	misses[3] 	142351
scalar geant_cost_network.node[3].content_store 	decision_yes[3] 	142197
scalar geant_cost_network.node[3].content_store 	decision_no[3] 	0
scalar geant_cost_network.node[3].content_store 	decision_ratio[3] 	1
scalar geant_cost_network.node[4].core_layer 	interests[4] 	218394
scalar geant_cost_network.node[4].core_layer 	data[4] 	217244
scalar geant_cost_network.node[4].content_store 	p_hit[4] 	0.0052427940200096
scalar geant_cost_network.node[4].content_store 	hits[4] 	1145
scalar geant_cost_network.node[4].content_store 	misses[4] 	217250
scalar geant_cost_network.node[4].content_store 	decision_yes[4] 	217218
scalar geant_cost_network.node[4].content_store 	decision_no[4] 	0
scalar geant_cost_network.node[4].content_store 	decision_ratio[4] 	1
scalar geant_cost_network.node[5].core_layer 	interests[5] 	183379
scalar geant_cost_network.node[5].core_layer 	data[5] 	141239
scalar geant_cost_network.node[5].content_store 	p_hit[5] 	0.25296697423645
scalar geant_cost_network.node[5].content_store 	hits[5] 	48279
scalar geant_cost_network.node[5].content_store 	misses[5] 	142572
scalar geant_cost_network.node[5].content_store 	decision_yes[5] 	141239
scalar geant_cost_network.node[5].content_store 	decision_no[5] 	0
scalar geant_cost_network.node[5].content_store 	decision_ratio[5] 	1
scalar geant_cost_network.node[6].core_layer 	interests[6] 	71253
scalar geant_cost_network.node[6].core_layer 	data[6] 	67718
scalar geant_cost_network.node[6].content_store 	p_hit[6] 	0.04961194616367
scalar geant_cost_network.node[6].content_store 	hits[6] 	3535
scalar geant_cost_network.node[6].content_store 	misses[6] 	67718
scalar geant_cost_network.node[6].content_store 	decision_yes[6] 	67718
scalar geant_cost_network.node[6].content_store 	decision_no[6] 	0
scalar geant_cost_network.node[6].content_store 	decision_ratio[6] 	1
scalar geant_cost_network.node[7].core_layer 	interests[7] 	241316
scalar geant_cost_network.node[7].core_layer 	data[7] 	239611
scalar geant_cost_network.node[7].content_store 	p_hit[7] 	0.0070529927563858
scalar geant_cost_network.node[7].content_store 	hits[7] 	1702
scalar geant_cost_network.node[7].content_store 	misses[7] 	239614
scalar geant_cost_network.node[7].content_store 	decision_yes[7] 	239597
scalar geant_cost_network.node[7].content_store 	decision_no[7] 	0
scalar geant_cost_network.node[7].content_store 	decision_ratio[7] 	1
scalar geant_cost_network.node[8].core_layer 	interests[8] 	239205
scalar geant_cost_network.node[8].core_layer 	data[8] 	237241
scalar geant_cost_network.node[8].content_store 	p_hit[8] 	0.0082105307163312
scalar geant_cost_network.node[8].content_store 	hits[8] 	1964
scalar geant_cost_network.node[8].content_store 	misses[8] 	237241
scalar geant_cost_network.node[8].content_store 	decision_yes[8] 	237230
scalar geant_cost_network.node[8].content_store 	decision_no[8] 	0
scalar geant_cost_network.node[8].content_store 	decision_ratio[8] 	1
scalar geant_cost_network.node[9].core_layer 	interests[9] 	357254
scalar geant_cost_network.node[9].core_layer 	data[9] 	315052
scalar geant_cost_network.node[9].content_store 	p_hit[9] 	0.11563201531683
scalar geant_cost_network.node[9].content_store 	hits[9] 	41310
scalar geant_cost_network.node[9].content_store 	misses[9] 	315944
scalar geant_cost_network.node[9].content_store 	decision_yes[9] 	315008
scalar geant_cost_network.node[9].content_store 	decision_no[9] 	0
scalar geant_cost_network.node[9].content_store 	decision_ratio[9] 	1
scalar geant_cost_network.node[10].core_layer 	interests[10] 	190196
scalar geant_cost_network.node[10].core_layer 	data[10] 	139852
scalar geant_cost_network.node[10].content_store 	p_hit[10] 	0.26290773728154
scalar geant_cost_network.node[10].content_store 	hits[10] 	50004
scalar geant_cost_network.node[10].content_store 	misses[10] 	140192
scalar geant_cost_network.node[10].content_store 	decision_yes[10] 	139852
scalar geant_cost_network.node[10].content_store 	decision_no[10] 	0
scalar geant_cost_network.node[10].content_store 	decision_ratio[10] 	1
scalar geant_cost_network.node[11].core_layer 	interests[11] 	0
scalar geant_cost_network.node[11].core_layer 	data[11] 	0
scalar geant_cost_network.node[11].content_store 	p_hit[11] 	-nan
scalar geant_cost_network.node[11].content_store 	hits[11] 	0
scalar geant_cost_network.node[11].content_store 	misses[11] 	0
scalar geant_cost_network.node[11].content_store 	decision_yes[11] 	0
scalar geant_cost_network.node[11].content_store 	decision_no[11] 	0
scalar geant_cost_network.node[11].content_store 	decision_ratio[11] 	0
scalar geant_cost_network.node[12].core_layer 	interests[12] 	315846
scalar geant_cost_network.node[12].core_layer 	data[12] 	261805
scalar geant_cost_network.node[12].content_store 	p_hit[12] 	0.16589972592682
scalar geant_cost_network.node[12].content_store 	hits[12] 	52420
scalar geant_cost_network.node[12].content_store 	misses[12] 	263554
scalar geant_cost_network.node[12].content_store 	decision_yes[12] 	261798
scalar geant_cost_network.node[12].content_store 	decision_no[12] 	0
scalar geant_cost_network.node[12].content_store 	decision_ratio[12] 	1
scalar geant_cost_network.node[13].core_layer 	interests[13] 	53958
scalar geant_cost_network.node[13].core_layer 	data[13] 	1072
scalar geant_cost_network.node[13].content_store 	p_hit[13] 	0.98022906254034
scalar geant_cost_network.node[13].content_store 	hits[13] 	53149
scalar geant_cost_network.node[13].content_store 	misses[13] 	1072
scalar geant_cost_network.node[13].content_store 	decision_yes[13] 	1072
scalar geant_cost_network.node[13].content_store 	decision_no[13] 	0
scalar geant_cost_network.node[13].content_store 	decision_ratio[13] 	1
scalar geant_cost_network.node[14].core_layer 	interests[14] 	89136
scalar geant_cost_network.node[14].core_layer 	data[14] 	66257
scalar geant_cost_network.node[14].content_store 	p_hit[14] 	0.25713522121135
scalar geant_cost_network.node[14].content_store 	hits[14] 	23091
scalar geant_cost_network.node[14].content_store 	misses[14] 	66710
scalar geant_cost_network.node[14].content_store 	decision_yes[14] 	66254
scalar geant_cost_network.node[14].content_store 	decision_no[14] 	0
scalar geant_cost_network.node[14].content_store 	decision_ratio[14] 	1
scalar geant_cost_network.node[15].core_layer 	interests[15] 	71051
scalar geant_cost_network.node[15].core_layer 	data[15] 	9
scalar geant_cost_network.node[15].content_store 	p_hit[15] 	0.99987333042462
scalar geant_cost_network.node[15].content_store 	hits[15] 	71042
scalar geant_cost_network.node[15].content_store 	misses[15] 	9
scalar geant_cost_network.node[15].content_store 	decision_yes[15] 	9
scalar geant_cost_network.node[15].content_store 	decision_no[15] 	0
scalar geant_cost_network.node[15].content_store 	decision_ratio[15] 	1
scalar geant_cost_network.node[16].core_layer 	interests[16] 	0
scalar geant_cost_network.node[16].core_layer 	data[16] 	0
scalar geant_cost_network.node[16].content_store 	p_hit[16] 	-nan
scalar geant_cost_network.node[16].content_store 	hits[16] 	0
scalar geant_cost_network.node[16].content_store 	misses[16] 	0
scalar geant_cost_network.node[16].content_store 	decision_yes[16] 	0
scalar geant_cost_network.node[16].content_store 	decision_no[16] 	0
scalar geant_cost_network.node[16].content_store 	decision_ratio[16] 	0
scalar geant_cost_network.node[17].core_layer 	interests[17] 	0
scalar geant_cost_network.node[17].core_layer 	data[17] 	0
scalar geant_cost_network.node[17].content_store 	p_hit[17] 	-nan
scalar geant_cost_network.node[17].content_store 	hits[17] 	0
scalar geant_cost_network.node[17].content_store 	misses[17] 	0
scalar geant_cost_network.node[17].content_store 	decision_yes[17] 	0
scalar geant_cost_network.node[17].content_store 	decision_no[17] 	0
scalar geant_cost_network.node[17].content_store 	decision_ratio[17] 	0
scalar geant_cost_network.node[18].core_layer 	interests[18] 	108797
scalar geant_cost_network.node[18].core_layer 	data[18] 	103047
scalar geant_cost_network.node[18].content_store 	p_hit[18] 	0.052911657659645
scalar geant_cost_network.node[18].content_store 	hits[18] 	5757
scalar geant_cost_network.node[18].content_store 	misses[18] 	103047
scalar geant_cost_network.node[18].content_store 	decision_yes[18] 	103047
scalar geant_cost_network.node[18].content_store 	decision_no[18] 	0
scalar geant_cost_network.node[18].content_store 	decision_ratio[18] 	1
scalar geant_cost_network.node[19].core_layer 	interests[19] 	0
scalar geant_cost_network.node[19].core_layer 	data[19] 	0
scalar geant_cost_network.node[19].content_store 	p_hit[19] 	-nan
scalar geant_cost_network.node[19].content_store 	hits[19] 	0
scalar geant_cost_network.node[19].content_store 	misses[19] 	0
scalar geant_cost_network.node[19].content_store 	decision_yes[19] 	0
scalar geant_cost_network.node[19].content_store 	decision_no[19] 	0
scalar geant_cost_network.node[19].content_store 	decision_ratio[19] 	0
scalar geant_cost_network.node[20].core_layer 	interests[20] 	180946
scalar geant_cost_network.node[20].core_layer 	data[20] 	140418
scalar geant_cost_network.node[20].content_store 	p_hit[20] 	0.22201651321389
scalar geant_cost_network.node[20].content_store 	hits[20] 	40173
scalar geant_cost_network.node[20].content_store 	misses[20] 	140773
scalar geant_cost_network.node[20].content_store 	decision_yes[20] 	140418
scalar geant_cost_network.node[20].content_store 	decision_no[20] 	0
scalar geant_cost_network.node[20].content_store 	decision_ratio[20] 	1
scalar geant_cost_network.node[21].core_layer 	interests[21] 	169367
scalar geant_cost_network.node[21].core_layer 	data[21] 	167824
scalar geant_cost_network.node[21].content_store 	p_hit[21] 	0.0091102858256233
scalar geant_cost_network.node[21].content_store 	hits[21] 	1543
scalar geant_cost_network.node[21].content_store 	misses[21] 	167826
scalar geant_cost_network.node[21].content_store 	decision_yes[21] 	167824
scalar geant_cost_network.node[21].content_store 	decision_no[21] 	0
scalar geant_cost_network.node[21].content_store 	decision_ratio[21] 	1
scalar geant_cost_network.node[22].core_layer 	interests[22] 	171040
scalar geant_cost_network.node[22].core_layer 	repo_load[22] 	171040
scalar geant_cost_network.node[22].core_layer 	data[22] 	0
scalar geant_cost_network.node[22].content_store 	p_hit[22] 	0
scalar geant_cost_network.node[22].content_store 	hits[22] 	0
scalar geant_cost_network.node[22].content_store 	misses[22] 	171040
scalar geant_cost_network.node[22].content_store 	decision_yes[22] 	0
scalar geant_cost_network.node[22].content_store 	decision_no[22] 	171040
scalar geant_cost_network.node[22].content_store 	decision_ratio[22] 	0
scalar geant_cost_network.node[23].core_layer 	interests[23] 	166083
scalar geant_cost_network.node[23].core_layer 	repo_load[23] 	166083
scalar geant_cost_network.node[23].core_layer 	data[23] 	0
scalar geant_cost_network.node[23].content_store 	p_hit[23] 	0
scalar geant_cost_network.node[23].content_store 	hits[23] 	0
scalar geant_cost_network.node[23].content_store 	misses[23] 	166083
scalar geant_cost_network.node[23].content_store 	decision_yes[23] 	0
scalar geant_cost_network.node[23].content_store 	decision_no[23] 	166083
scalar geant_cost_network.node[23].content_store 	decision_ratio[23] 	0
scalar geant_cost_network.node[24].core_layer 	interests[24] 	167824
scalar geant_cost_network.node[24].core_layer 	repo_load[24] 	167824
scalar geant_cost_network.node[24].core_layer 	data[24] 	0
scalar geant_cost_network.node[24].content_store 	p_hit[24] 	0
scalar geant_cost_network.node[24].content_store 	hits[24] 	0
scalar geant_cost_network.node[24].content_store 	misses[24] 	167826
scalar geant_cost_network.node[24].content_store 	decision_yes[24] 	0
scalar geant_cost_network.node[24].content_store 	decision_no[24] 	167824
scalar geant_cost_network.node[24].content_store 	decision_ratio[24] 	0
scalar geant_cost_network.client[5] 	hdistance[5] 	2.8001393922498
scalar geant_cost_network.client[5] 	downloads[5] 	179350
scalar geant_cost_network.client[5] 	avg_time[5] 	0.009974623503
scalar geant_cost_network.client[5] 	interests_sent[5] 	179797
scalar geant_cost_network.client[9] 	hdistance[9] 	2.8553079188682
scalar geant_cost_network.client[9] 	downloads[9] 	179609
scalar geant_cost_network.client[9] 	avg_time[9] 	0.006106585669
scalar geant_cost_network.client[9] 	interests_sent[9] 	179943
scalar geant_cost_network.client[10] 	hdistance[10] 	3.5842878520686
scalar geant_cost_network.client[10] 	downloads[10] 	179759
scalar geant_cost_network.client[10] 	avg_time[10] 	0.007629580847
scalar geant_cost_network.client[10] 	interests_sent[10] 	180099
scalar geant_cost_network.client[12] 	hdistance[12] 	2.8873312651966
scalar geant_cost_network.client[12] 	downloads[12] 	178905
scalar geant_cost_network.client[12] 	avg_time[12] 	0.007610346558
scalar geant_cost_network.client[12] 	interests_sent[12] 	179684
scalar geant_cost_network.client[20] 	hdistance[20] 	3.1683873363147
scalar geant_cost_network.client[20] 	downloads[20] 	180453
scalar geant_cost_network.client[20] 	avg_time[20] 	0.007529967739
scalar geant_cost_network.client[20] 	interests_sent[20] 	180808
