version 2
run General-39-20140425-21:49:13-20975
attr D costprob0.02
attr F nrr
attr R lru
attr a 1
attr configname General
attr csize 1000
attr ctlg 10^5
attr datetime 20140425-21:49:13
attr experiment General
attr inifile omnetpp.ini
attr iterationvars "$net=one_cache_scenario, $rep=4, $priceratiovalue=2, $a=1, $ctlg=10^5, $F=nrr, $ttl=1000, $D=costprob0.02, $R=lru, $csize=1000, $tempo=4800"
attr iterationvars2 "$net=one_cache_scenario, $rep=4, $priceratiovalue=2, $a=1, $ctlg=10^5, $F=nrr, $ttl=1000, $D=costprob0.02, $R=lru, $csize=1000, $tempo=4800, $repetition=0"
attr measurement "$net=one_cache_scenario, $rep=4, $priceratiovalue=2, $a=1, $ctlg=10^5, $F=nrr, $ttl=1000, $D=costprob0.02, $R=lru, $csize=1000, $tempo=4800"
attr net one_cache_scenario
attr network networks.${net=one_cache_scenario}_network
attr priceratiovalue 2
attr processid 20975
attr rep 4
attr repetition 0
attr replication #0
attr resultdir results
attr runnumber 39
attr seedset 4
attr tempo 4800
attr ttl 1000

scalar . 	a 	1
scalar . 	csize 	1000
scalar . 	priceratiovalue 	2
scalar . 	rep 	4
scalar . 	tempo 	4800
scalar . 	ttl 	1000
scalar one_cache_scenario_network.content_distribution 	repo-0 	3
scalar one_cache_scenario_network.content_distribution 	repo-1 	4
scalar one_cache_scenario_network.content_distribution 	client-0 	0
scalar one_cache_scenario_network.content_distribution 	repo-0_card 	50216
scalar one_cache_scenario_network.content_distribution 	repo-1_card 	49784
scalar one_cache_scenario_network.statistics 	p_hit 	0.2934657841026
scalar one_cache_scenario_network.statistics 	interests 	181380.6
scalar one_cache_scenario_network.statistics 	data 	85434.4
scalar one_cache_scenario_network.statistics 	hdistance 	0.89044068446692
scalar one_cache_scenario_network.statistics 	avg_time 	0
scalar one_cache_scenario_network.statistics 	downloads 	479731
scalar one_cache_scenario_network.statistics 	total_cost 	104629
scalar one_cache_scenario_network.statistics 	interests_sent 	479731
scalar one_cache_scenario_network.node[0].core_layer 	interests[0] 	479731
scalar one_cache_scenario_network.node[0].core_layer 	data[0] 	213586
scalar one_cache_scenario_network.node[0].core_layer 	repo_int[0] 	213586
scalar one_cache_scenario_network.node[0].content_store 	p_hit[0] 	0.55477965776654
scalar one_cache_scenario_network.node[0].content_store 	hits[0] 	266145
scalar one_cache_scenario_network.node[0].content_store 	misses[0] 	213586
scalar one_cache_scenario_network.node[0].content_store 	decision_yes[0] 	2090
scalar one_cache_scenario_network.node[0].content_store 	decision_no[0] 	211496
scalar one_cache_scenario_network.node[1].core_layer 	interests[1] 	113283
scalar one_cache_scenario_network.node[1].core_layer 	data[1] 	113283
scalar one_cache_scenario_network.node[1].content_store 	p_hit[1] 	0
scalar one_cache_scenario_network.node[1].content_store 	hits[1] 	0
scalar one_cache_scenario_network.node[1].content_store 	misses[1] 	113283
scalar one_cache_scenario_network.node[1].content_store 	decision_yes[1] 	0
scalar one_cache_scenario_network.node[1].content_store 	decision_no[1] 	113283
scalar one_cache_scenario_network.node[2].core_layer 	interests[2] 	100303
scalar one_cache_scenario_network.node[2].core_layer 	data[2] 	100303
scalar one_cache_scenario_network.node[2].content_store 	p_hit[2] 	0
scalar one_cache_scenario_network.node[2].content_store 	hits[2] 	0
scalar one_cache_scenario_network.node[2].content_store 	misses[2] 	100303
scalar one_cache_scenario_network.node[2].content_store 	decision_yes[2] 	0
scalar one_cache_scenario_network.node[2].content_store 	decision_no[2] 	100303
scalar one_cache_scenario_network.node[3].core_layer 	interests[3] 	113283
scalar one_cache_scenario_network.node[3].core_layer 	repo_load[3] 	113283
scalar one_cache_scenario_network.node[3].core_layer 	data[3] 	0
scalar one_cache_scenario_network.node[3].content_store 	p_hit[3] 	0
scalar one_cache_scenario_network.node[3].content_store 	hits[3] 	0
scalar one_cache_scenario_network.node[3].content_store 	misses[3] 	113283
scalar one_cache_scenario_network.node[3].content_store 	decision_yes[3] 	0
scalar one_cache_scenario_network.node[3].content_store 	decision_no[3] 	113283
scalar one_cache_scenario_network.node[4].core_layer 	interests[4] 	100303
scalar one_cache_scenario_network.node[4].core_layer 	repo_load[4] 	100303
scalar one_cache_scenario_network.node[4].core_layer 	data[4] 	0
scalar one_cache_scenario_network.node[4].content_store 	p_hit[4] 	0
scalar one_cache_scenario_network.node[4].content_store 	hits[4] 	0
scalar one_cache_scenario_network.node[4].content_store 	misses[4] 	100303
scalar one_cache_scenario_network.node[4].content_store 	decision_yes[4] 	0
scalar one_cache_scenario_network.node[4].content_store 	decision_no[4] 	100303
scalar one_cache_scenario_network.client[0] 	hdistance[0] 	0.89044068446692
scalar one_cache_scenario_network.client[0] 	downloads[0] 	479731
scalar one_cache_scenario_network.client[0] 	avg_time[0] 	0
scalar one_cache_scenario_network.client[0] 	interests_sent[0] 	479731
