version 2
run General-3-20140425-21:47:21-20937
attr D costprob0.02
attr F nrr
attr R lru
attr a 1
attr configname General
attr csize 1000
attr ctlg 10^5
attr datetime 20140425-21:47:21
attr experiment General
attr inifile omnetpp.ini
attr iterationvars "$net=one_cache_scenario, $rep=1, $priceratiovalue=2, $a=1, $ctlg=10^5, $F=nrr, $ttl=1000, $D=costprob0.02, $R=lru, $csize=1000, $tempo=4800"
attr iterationvars2 "$net=one_cache_scenario, $rep=1, $priceratiovalue=2, $a=1, $ctlg=10^5, $F=nrr, $ttl=1000, $D=costprob0.02, $R=lru, $csize=1000, $tempo=4800, $repetition=0"
attr measurement "$net=one_cache_scenario, $rep=1, $priceratiovalue=2, $a=1, $ctlg=10^5, $F=nrr, $ttl=1000, $D=costprob0.02, $R=lru, $csize=1000, $tempo=4800"
attr net one_cache_scenario
attr network networks.${net=one_cache_scenario}_network
attr priceratiovalue 2
attr processid 20937
attr rep 1
attr repetition 0
attr replication #0
attr resultdir results
attr runnumber 3
attr seedset 1
attr tempo 4800
attr ttl 1000

scalar . 	a 	1
scalar . 	csize 	1000
scalar . 	priceratiovalue 	2
scalar . 	rep 	1
scalar . 	tempo 	4800
scalar . 	ttl 	1000
scalar one_cache_scenario_network.content_distribution 	repo-0 	3
scalar one_cache_scenario_network.content_distribution 	repo-1 	4
scalar one_cache_scenario_network.content_distribution 	client-0 	0
scalar one_cache_scenario_network.content_distribution 	repo-0_card 	50125
scalar one_cache_scenario_network.content_distribution 	repo-1_card 	49875
scalar one_cache_scenario_network.statistics 	p_hit 	0.29293017218677
scalar one_cache_scenario_network.statistics 	interests 	181512.2
scalar one_cache_scenario_network.statistics 	data 	85561.2
scalar one_cache_scenario_network.statistics 	hdistance 	0.89171764754927
scalar one_cache_scenario_network.statistics 	avg_time 	0
scalar one_cache_scenario_network.statistics 	downloads 	479755
scalar one_cache_scenario_network.statistics 	total_cost 	104817
scalar one_cache_scenario_network.statistics 	interests_sent 	479755
scalar one_cache_scenario_network.node[0].core_layer 	interests[0] 	479755
scalar one_cache_scenario_network.node[0].core_layer 	data[0] 	213903
scalar one_cache_scenario_network.node[0].core_layer 	repo_int[0] 	213903
scalar one_cache_scenario_network.node[0].content_store 	p_hit[0] 	0.55414117622537
scalar one_cache_scenario_network.node[0].content_store 	hits[0] 	265852
scalar one_cache_scenario_network.node[0].content_store 	misses[0] 	213903
scalar one_cache_scenario_network.node[0].content_store 	decision_yes[0] 	2083
scalar one_cache_scenario_network.node[0].content_store 	decision_no[0] 	211820
scalar one_cache_scenario_network.node[1].core_layer 	interests[1] 	113353
scalar one_cache_scenario_network.node[1].core_layer 	data[1] 	113353
scalar one_cache_scenario_network.node[1].content_store 	p_hit[1] 	0
scalar one_cache_scenario_network.node[1].content_store 	hits[1] 	0
scalar one_cache_scenario_network.node[1].content_store 	misses[1] 	113353
scalar one_cache_scenario_network.node[1].content_store 	decision_yes[1] 	0
scalar one_cache_scenario_network.node[1].content_store 	decision_no[1] 	113353
scalar one_cache_scenario_network.node[2].core_layer 	interests[2] 	100550
scalar one_cache_scenario_network.node[2].core_layer 	data[2] 	100550
scalar one_cache_scenario_network.node[2].content_store 	p_hit[2] 	0
scalar one_cache_scenario_network.node[2].content_store 	hits[2] 	0
scalar one_cache_scenario_network.node[2].content_store 	misses[2] 	100550
scalar one_cache_scenario_network.node[2].content_store 	decision_yes[2] 	0
scalar one_cache_scenario_network.node[2].content_store 	decision_no[2] 	100550
scalar one_cache_scenario_network.node[3].core_layer 	interests[3] 	113353
scalar one_cache_scenario_network.node[3].core_layer 	repo_load[3] 	113353
scalar one_cache_scenario_network.node[3].core_layer 	data[3] 	0
scalar one_cache_scenario_network.node[3].content_store 	p_hit[3] 	0
scalar one_cache_scenario_network.node[3].content_store 	hits[3] 	0
scalar one_cache_scenario_network.node[3].content_store 	misses[3] 	113353
scalar one_cache_scenario_network.node[3].content_store 	decision_yes[3] 	0
scalar one_cache_scenario_network.node[3].content_store 	decision_no[3] 	113353
scalar one_cache_scenario_network.node[4].core_layer 	interests[4] 	100550
scalar one_cache_scenario_network.node[4].core_layer 	repo_load[4] 	100550
scalar one_cache_scenario_network.node[4].core_layer 	data[4] 	0
scalar one_cache_scenario_network.node[4].content_store 	p_hit[4] 	0
scalar one_cache_scenario_network.node[4].content_store 	hits[4] 	0
scalar one_cache_scenario_network.node[4].content_store 	misses[4] 	100550
scalar one_cache_scenario_network.node[4].content_store 	decision_yes[4] 	0
scalar one_cache_scenario_network.node[4].content_store 	decision_no[4] 	100550
scalar one_cache_scenario_network.client[0] 	hdistance[0] 	0.89171764754927
scalar one_cache_scenario_network.client[0] 	downloads[0] 	479755
scalar one_cache_scenario_network.client[0] 	avg_time[0] 	0
scalar one_cache_scenario_network.client[0] 	interests_sent[0] 	479755
