version 2
run General-1992-20140502-04:53:50-10928
attr D costprob0.1
attr F nrr
attr R lru
attr a 1
attr configname General
attr csize 1e3
attr ctlg 1e5
attr datetime 20140502-04:53:50
attr experiment General
attr inifile omnetpp.ini
attr iterationvars "$net=three_caches_scenario_3_links, $rep=4, $priceratiovalue=2, $weights=0_0.5_0.5, $a=1, $ctlg=1e5, $F=nrr, $ttl=1000, $D=costprob0.1, $xi=1, $R=lru, $csize=1e3"
attr iterationvars2 "$net=three_caches_scenario_3_links, $rep=4, $priceratiovalue=2, $weights=0_0.5_0.5, $a=1, $ctlg=1e5, $F=nrr, $ttl=1000, $D=costprob0.1, $xi=1, $R=lru, $csize=1e3, $repetition=0"
attr measurement "$net=three_caches_scenario_3_links, $rep=4, $priceratiovalue=2, $weights=0_0.5_0.5, $a=1, $ctlg=1e5, $F=nrr, $ttl=1000, $D=costprob0.1, $xi=1, $R=lru, $csize=1e3"
attr net three_caches_scenario_3_links
attr network networks.${net=three_caches_scenario_3_links}_network
attr priceratiovalue 2
attr processid 10928
attr rep 4
attr repetition 0
attr replication #0
attr resultdir results
attr runnumber 1992
attr seedset 4
attr ttl 1000
attr weights 0_0.5_0.5
attr xi 1

scalar . 	a 	1
scalar . 	csize 	1e3
scalar . 	ctlg 	1e5
scalar . 	priceratiovalue 	2
scalar . 	rep 	4
scalar . 	ttl 	1000
scalar . 	xi 	1
scalar three_caches_scenario_3_links_network.content_distribution 	repo-0 	4
scalar three_caches_scenario_3_links_network.content_distribution 	repo-1 	5
scalar three_caches_scenario_3_links_network.content_distribution 	repo-2 	6
scalar three_caches_scenario_3_links_network.content_distribution 	client-0 	0
scalar three_caches_scenario_3_links_network.content_distribution 	repo-0_card 	0
scalar three_caches_scenario_3_links_network.content_distribution 	repo-1_card 	50243
scalar three_caches_scenario_3_links_network.content_distribution 	repo-2_card 	49757
scalar three_caches_scenario_3_links_network.statistics 	p_hit 	0.23973800195886
scalar three_caches_scenario_3_links_network.statistics 	interests 	58342.857142857
scalar three_caches_scenario_3_links_network.statistics 	data 	32624.714285714
scalar three_caches_scenario_3_links_network.statistics 	hdistance 	1.7246912963056
scalar three_caches_scenario_3_links_network.statistics 	avg_time 	0
scalar three_caches_scenario_3_links_network.statistics 	downloads 	180027
scalar three_caches_scenario_3_links_network.statistics 	total_cost 	122694
scalar three_caches_scenario_3_links_network.statistics 	total_replicas 	100000
scalar three_caches_scenario_3_links_network.statistics 	interests_sent 	180027
scalar three_caches_scenario_3_links_network.node[0].core_layer 	interests[0] 	180027
scalar three_caches_scenario_3_links_network.node[0].core_layer 	data[0] 	146255
scalar three_caches_scenario_3_links_network.node[0].core_layer 	repo_int[0] 	82118
scalar three_caches_scenario_3_links_network.node[0].content_store 	p_hit[0] 	0.18759408310976
scalar three_caches_scenario_3_links_network.node[0].content_store 	hits[0] 	33772
scalar three_caches_scenario_3_links_network.node[0].content_store 	misses[0] 	146255
scalar three_caches_scenario_3_links_network.node[0].content_store 	decision_yes[0] 	8121
scalar three_caches_scenario_3_links_network.node[0].content_store 	decision_no[0] 	138134
scalar three_caches_scenario_3_links_network.node[1].core_layer 	interests[1] 	0
scalar three_caches_scenario_3_links_network.node[1].core_layer 	data[1] 	0
scalar three_caches_scenario_3_links_network.node[1].content_store 	p_hit[1] 	-nan
scalar three_caches_scenario_3_links_network.node[1].content_store 	hits[1] 	0
scalar three_caches_scenario_3_links_network.node[1].content_store 	misses[1] 	0
scalar three_caches_scenario_3_links_network.node[1].content_store 	decision_yes[1] 	0
scalar three_caches_scenario_3_links_network.node[1].content_store 	decision_no[1] 	0
scalar three_caches_scenario_3_links_network.node[2].core_layer 	interests[2] 	86211
scalar three_caches_scenario_3_links_network.node[2].core_layer 	data[2] 	41542
scalar three_caches_scenario_3_links_network.node[2].content_store 	p_hit[2] 	0.51813573673893
scalar three_caches_scenario_3_links_network.node[2].content_store 	hits[2] 	44669
scalar three_caches_scenario_3_links_network.node[2].content_store 	misses[2] 	41542
scalar three_caches_scenario_3_links_network.node[2].content_store 	decision_yes[2] 	2731
scalar three_caches_scenario_3_links_network.node[2].content_store 	decision_no[2] 	38811
scalar three_caches_scenario_3_links_network.node[3].core_layer 	interests[3] 	60044
scalar three_caches_scenario_3_links_network.node[3].core_layer 	data[3] 	40576
scalar three_caches_scenario_3_links_network.node[3].content_store 	p_hit[3] 	0.32422889880754
scalar three_caches_scenario_3_links_network.node[3].content_store 	hits[3] 	19468
scalar three_caches_scenario_3_links_network.node[3].content_store 	misses[3] 	40576
scalar three_caches_scenario_3_links_network.node[3].content_store 	decision_yes[3] 	5329
scalar three_caches_scenario_3_links_network.node[3].content_store 	decision_no[3] 	35247
scalar three_caches_scenario_3_links_network.node[4].core_layer 	interests[4] 	0
scalar three_caches_scenario_3_links_network.node[4].core_layer 	data[4] 	0
scalar three_caches_scenario_3_links_network.node[4].content_store 	p_hit[4] 	-nan
scalar three_caches_scenario_3_links_network.node[4].content_store 	hits[4] 	0
scalar three_caches_scenario_3_links_network.node[4].content_store 	misses[4] 	0
scalar three_caches_scenario_3_links_network.node[4].content_store 	decision_yes[4] 	0
scalar three_caches_scenario_3_links_network.node[4].content_store 	decision_no[4] 	0
scalar three_caches_scenario_3_links_network.node[5].core_layer 	interests[5] 	41542
scalar three_caches_scenario_3_links_network.node[5].core_layer 	repo_load[5] 	41542
scalar three_caches_scenario_3_links_network.node[5].core_layer 	data[5] 	0
scalar three_caches_scenario_3_links_network.node[5].content_store 	p_hit[5] 	0
scalar three_caches_scenario_3_links_network.node[5].content_store 	hits[5] 	0
scalar three_caches_scenario_3_links_network.node[5].content_store 	misses[5] 	41542
scalar three_caches_scenario_3_links_network.node[5].content_store 	decision_yes[5] 	0
scalar three_caches_scenario_3_links_network.node[5].content_store 	decision_no[5] 	41542
scalar three_caches_scenario_3_links_network.node[6].core_layer 	interests[6] 	40576
scalar three_caches_scenario_3_links_network.node[6].core_layer 	repo_load[6] 	40576
scalar three_caches_scenario_3_links_network.node[6].core_layer 	data[6] 	0
scalar three_caches_scenario_3_links_network.node[6].content_store 	p_hit[6] 	0
scalar three_caches_scenario_3_links_network.node[6].content_store 	hits[6] 	0
scalar three_caches_scenario_3_links_network.node[6].content_store 	misses[6] 	40576
scalar three_caches_scenario_3_links_network.node[6].content_store 	decision_yes[6] 	0
scalar three_caches_scenario_3_links_network.node[6].content_store 	decision_no[6] 	40576
scalar three_caches_scenario_3_links_network.client[0] 	hdistance[0] 	1.7246912963056
scalar three_caches_scenario_3_links_network.client[0] 	downloads[0] 	180027
scalar three_caches_scenario_3_links_network.client[0] 	avg_time[0] 	0
scalar three_caches_scenario_3_links_network.client[0] 	interests_sent[0] 	180027
