version 2
run General-10-20140426-22:39:50-15608
attr D costprob0.02
attr F nrr
attr R lru
attr a 0.8
attr configname General
attr csize 1000
attr ctlg 10^5
attr datetime 20140426-22:39:50
attr experiment General
attr inifile omnetpp.ini
attr iterationvars "$net=one_cache_scenario, $rep=4, $priceratiovalue=10, $a=0.8, $ctlg=10^5, $F=nrr, $ttl=1000, $D=costprob0.02, $xi=1, $R=lru, $csize=1000"
attr iterationvars2 "$net=one_cache_scenario, $rep=4, $priceratiovalue=10, $a=0.8, $ctlg=10^5, $F=nrr, $ttl=1000, $D=costprob0.02, $xi=1, $R=lru, $csize=1000, $repetition=0"
attr measurement "$net=one_cache_scenario, $rep=4, $priceratiovalue=10, $a=0.8, $ctlg=10^5, $F=nrr, $ttl=1000, $D=costprob0.02, $xi=1, $R=lru, $csize=1000"
attr net one_cache_scenario
attr network networks.${net=one_cache_scenario}_network
attr priceratiovalue 10
attr processid 15608
attr rep 4
attr repetition 0
attr replication #0
attr resultdir results
attr runnumber 10
attr seedset 4
attr ttl 1000
attr xi 1

scalar . 	a 	0.8
scalar . 	csize 	1000
scalar . 	priceratiovalue 	10
scalar . 	rep 	4
scalar . 	ttl 	1000
scalar . 	xi 	1
scalar one_cache_scenario_network.content_distribution 	repo-0 	3
scalar one_cache_scenario_network.content_distribution 	repo-1 	4
scalar one_cache_scenario_network.content_distribution 	client-0 	0
scalar one_cache_scenario_network.content_distribution 	repo-0_card 	50123
scalar one_cache_scenario_network.content_distribution 	repo-1_card 	49877
scalar one_cache_scenario_network.statistics 	p_hit 	0.079095633069724
scalar one_cache_scenario_network.statistics 	interests 	93218.8
scalar one_cache_scenario_network.statistics 	data 	57230.4
scalar one_cache_scenario_network.statistics 	hdistance 	1.5902457458514
scalar one_cache_scenario_network.statistics 	avg_time 	0
scalar one_cache_scenario_network.statistics 	downloads 	179942
scalar one_cache_scenario_network.statistics 	total_cost 	65077
scalar one_cache_scenario_network.statistics 	interests_sent 	179942
scalar one_cache_scenario_network.node[0].core_layer 	interests[0] 	179942
scalar one_cache_scenario_network.node[0].core_layer 	data[0] 	143076
scalar one_cache_scenario_network.node[0].core_layer 	repo_int[0] 	143076
scalar one_cache_scenario_network.node[0].content_store 	p_hit[0] 	0.20487712707428
scalar one_cache_scenario_network.node[0].content_store 	hits[0] 	36866
scalar one_cache_scenario_network.node[0].content_store 	misses[0] 	143076
scalar one_cache_scenario_network.node[0].content_store 	decision_yes[0] 	1270
scalar one_cache_scenario_network.node[0].content_store 	decision_no[0] 	141806
scalar one_cache_scenario_network.node[1].core_layer 	interests[1] 	79434
scalar one_cache_scenario_network.node[1].core_layer 	data[1] 	79434
scalar one_cache_scenario_network.node[1].content_store 	p_hit[1] 	0
scalar one_cache_scenario_network.node[1].content_store 	hits[1] 	0
scalar one_cache_scenario_network.node[1].content_store 	misses[1] 	79434
scalar one_cache_scenario_network.node[1].content_store 	decision_yes[1] 	0
scalar one_cache_scenario_network.node[1].content_store 	decision_no[1] 	79434
scalar one_cache_scenario_network.node[2].core_layer 	interests[2] 	63642
scalar one_cache_scenario_network.node[2].core_layer 	data[2] 	63642
scalar one_cache_scenario_network.node[2].content_store 	p_hit[2] 	0
scalar one_cache_scenario_network.node[2].content_store 	hits[2] 	0
scalar one_cache_scenario_network.node[2].content_store 	misses[2] 	63642
scalar one_cache_scenario_network.node[2].content_store 	decision_yes[2] 	0
scalar one_cache_scenario_network.node[2].content_store 	decision_no[2] 	63642
scalar one_cache_scenario_network.node[3].core_layer 	interests[3] 	79434
scalar one_cache_scenario_network.node[3].core_layer 	repo_load[3] 	79434
scalar one_cache_scenario_network.node[3].core_layer 	data[3] 	0
scalar one_cache_scenario_network.node[3].content_store 	p_hit[3] 	0
scalar one_cache_scenario_network.node[3].content_store 	hits[3] 	0
scalar one_cache_scenario_network.node[3].content_store 	misses[3] 	79434
scalar one_cache_scenario_network.node[3].content_store 	decision_yes[3] 	0
scalar one_cache_scenario_network.node[3].content_store 	decision_no[3] 	79434
scalar one_cache_scenario_network.node[4].core_layer 	interests[4] 	63642
scalar one_cache_scenario_network.node[4].core_layer 	repo_load[4] 	63642
scalar one_cache_scenario_network.node[4].core_layer 	data[4] 	0
scalar one_cache_scenario_network.node[4].content_store 	p_hit[4] 	0
scalar one_cache_scenario_network.node[4].content_store 	hits[4] 	0
scalar one_cache_scenario_network.node[4].content_store 	misses[4] 	63642
scalar one_cache_scenario_network.node[4].content_store 	decision_yes[4] 	0
scalar one_cache_scenario_network.node[4].content_store 	decision_no[4] 	63642
scalar one_cache_scenario_network.client[0] 	hdistance[0] 	1.5902457458514
scalar one_cache_scenario_network.client[0] 	downloads[0] 	179942
scalar one_cache_scenario_network.client[0] 	avg_time[0] 	0
scalar one_cache_scenario_network.client[0] 	interests_sent[0] 	179942
