version 2
run General-312-20140502-10:26:22-13442
attr D costprob0.1
attr F nrr
attr R lru
attr a 1.2
attr configname General
attr csize 1e3
attr ctlg 1e5
attr datetime 20140502-10:26:22
attr experiment General
attr inifile omnetpp.ini
attr iterationvars "$net=three_caches_scenario_3_links, $rep=3, $priceratiovalue=1, $weights=0.333_0.333_0.334, $a=1.2, $ctlg=1e5, $F=nrr, $ttl=1000, $D=costprob0.1, $xi=1, $R=lru, $csize=1e3"
attr iterationvars2 "$net=three_caches_scenario_3_links, $rep=3, $priceratiovalue=1, $weights=0.333_0.333_0.334, $a=1.2, $ctlg=1e5, $F=nrr, $ttl=1000, $D=costprob0.1, $xi=1, $R=lru, $csize=1e3, $repetition=0"
attr measurement "$net=three_caches_scenario_3_links, $rep=3, $priceratiovalue=1, $weights=0.333_0.333_0.334, $a=1.2, $ctlg=1e5, $F=nrr, $ttl=1000, $D=costprob0.1, $xi=1, $R=lru, $csize=1e3"
attr net three_caches_scenario_3_links
attr network networks.${net=three_caches_scenario_3_links}_network
attr priceratiovalue 1
attr processid 13442
attr rep 3
attr repetition 0
attr replication #0
attr resultdir results
attr runnumber 312
attr seedset 3
attr ttl 1000
attr weights 0.333_0.333_0.334
attr xi 1

scalar . 	a 	1.2
scalar . 	csize 	1e3
scalar . 	ctlg 	1e5
scalar . 	priceratiovalue 	1
scalar . 	rep 	3
scalar . 	ttl 	1000
scalar . 	xi 	1
scalar three_caches_scenario_3_links_network.content_distribution 	repo-0 	4
scalar three_caches_scenario_3_links_network.content_distribution 	repo-1 	5
scalar three_caches_scenario_3_links_network.content_distribution 	repo-2 	6
scalar three_caches_scenario_3_links_network.content_distribution 	client-0 	0
scalar three_caches_scenario_3_links_network.content_distribution 	repo-0_card 	33329
scalar three_caches_scenario_3_links_network.content_distribution 	repo-1_card 	33051
scalar three_caches_scenario_3_links_network.content_distribution 	repo-2_card 	33620
scalar three_caches_scenario_3_links_network.statistics 	p_hit 	0.16072276812742
scalar three_caches_scenario_3_links_network.statistics 	interests 	61351.428571429
scalar three_caches_scenario_3_links_network.statistics 	data 	35695.428571429
scalar three_caches_scenario_3_links_network.statistics 	hdistance 	1.5026003385451
scalar three_caches_scenario_3_links_network.statistics 	avg_time 	0
scalar three_caches_scenario_3_links_network.statistics 	downloads 	179592
scalar three_caches_scenario_3_links_network.statistics 	total_cost 	19987
scalar three_caches_scenario_3_links_network.statistics 	total_replicas 	100000
scalar three_caches_scenario_3_links_network.statistics 	interests_sent 	179592
scalar three_caches_scenario_3_links_network.node[0].core_layer 	interests[0] 	179592
scalar three_caches_scenario_3_links_network.node[0].core_layer 	data[0] 	139300
scalar three_caches_scenario_3_links_network.node[0].core_layer 	repo_int[0] 	110568
scalar three_caches_scenario_3_links_network.node[0].content_store 	p_hit[0] 	0.22435297786093
scalar three_caches_scenario_3_links_network.node[0].content_store 	hits[0] 	40292
scalar three_caches_scenario_3_links_network.node[0].content_store 	misses[0] 	139300
scalar three_caches_scenario_3_links_network.node[0].content_store 	decision_yes[0] 	3040
scalar three_caches_scenario_3_links_network.node[0].content_store 	decision_no[0] 	136260
scalar three_caches_scenario_3_links_network.node[1].core_layer 	interests[1] 	90581
scalar three_caches_scenario_3_links_network.node[1].core_layer 	data[1] 	90581
scalar three_caches_scenario_3_links_network.node[1].content_store 	p_hit[1] 	0
scalar three_caches_scenario_3_links_network.node[1].content_store 	hits[1] 	0
scalar three_caches_scenario_3_links_network.node[1].content_store 	misses[1] 	90581
scalar three_caches_scenario_3_links_network.node[1].content_store 	decision_yes[1] 	0
scalar three_caches_scenario_3_links_network.node[1].content_store 	decision_no[1] 	90581
scalar three_caches_scenario_3_links_network.node[2].core_layer 	interests[2] 	22644
scalar three_caches_scenario_3_links_network.node[2].core_layer 	data[2] 	9821
scalar three_caches_scenario_3_links_network.node[2].content_store 	p_hit[2] 	0.5662868751104
scalar three_caches_scenario_3_links_network.node[2].content_store 	hits[2] 	12823
scalar three_caches_scenario_3_links_network.node[2].content_store 	misses[2] 	9821
scalar three_caches_scenario_3_links_network.node[2].content_store 	decision_yes[2] 	1487
scalar three_caches_scenario_3_links_network.node[2].content_store 	decision_no[2] 	8334
scalar three_caches_scenario_3_links_network.node[3].core_layer 	interests[3] 	26075
scalar three_caches_scenario_3_links_network.node[3].core_layer 	data[3] 	10166
scalar three_caches_scenario_3_links_network.node[3].content_store 	p_hit[3] 	0.61012464046021
scalar three_caches_scenario_3_links_network.node[3].content_store 	hits[3] 	15909
scalar three_caches_scenario_3_links_network.node[3].content_store 	misses[3] 	10166
scalar three_caches_scenario_3_links_network.node[3].content_store 	decision_yes[3] 	1533
scalar three_caches_scenario_3_links_network.node[3].content_store 	decision_no[3] 	8633
scalar three_caches_scenario_3_links_network.node[4].core_layer 	interests[4] 	90581
scalar three_caches_scenario_3_links_network.node[4].core_layer 	repo_load[4] 	90581
scalar three_caches_scenario_3_links_network.node[4].core_layer 	data[4] 	0
scalar three_caches_scenario_3_links_network.node[4].content_store 	p_hit[4] 	0
scalar three_caches_scenario_3_links_network.node[4].content_store 	hits[4] 	0
scalar three_caches_scenario_3_links_network.node[4].content_store 	misses[4] 	90581
scalar three_caches_scenario_3_links_network.node[4].content_store 	decision_yes[4] 	0
scalar three_caches_scenario_3_links_network.node[4].content_store 	decision_no[4] 	90581
scalar three_caches_scenario_3_links_network.node[5].core_layer 	interests[5] 	9821
scalar three_caches_scenario_3_links_network.node[5].core_layer 	repo_load[5] 	9821
scalar three_caches_scenario_3_links_network.node[5].core_layer 	data[5] 	0
scalar three_caches_scenario_3_links_network.node[5].content_store 	p_hit[5] 	0
scalar three_caches_scenario_3_links_network.node[5].content_store 	hits[5] 	0
scalar three_caches_scenario_3_links_network.node[5].content_store 	misses[5] 	9821
scalar three_caches_scenario_3_links_network.node[5].content_store 	decision_yes[5] 	0
scalar three_caches_scenario_3_links_network.node[5].content_store 	decision_no[5] 	9821
scalar three_caches_scenario_3_links_network.node[6].core_layer 	interests[6] 	10166
scalar three_caches_scenario_3_links_network.node[6].core_layer 	repo_load[6] 	10166
scalar three_caches_scenario_3_links_network.node[6].core_layer 	data[6] 	0
scalar three_caches_scenario_3_links_network.node[6].content_store 	p_hit[6] 	0
scalar three_caches_scenario_3_links_network.node[6].content_store 	hits[6] 	0
scalar three_caches_scenario_3_links_network.node[6].content_store 	misses[6] 	10166
scalar three_caches_scenario_3_links_network.node[6].content_store 	decision_yes[6] 	0
scalar three_caches_scenario_3_links_network.node[6].content_store 	decision_no[6] 	10166
scalar three_caches_scenario_3_links_network.client[0] 	hdistance[0] 	1.5026003385451
scalar three_caches_scenario_3_links_network.client[0] 	downloads[0] 	179592
scalar three_caches_scenario_3_links_network.client[0] 	avg_time[0] 	0
scalar three_caches_scenario_3_links_network.client[0] 	interests_sent[0] 	179592
