version 2
run General-22-20140425-15:54:41-12432
attr D costprob0.2
attr F nrr
attr R lru
attr a 1.2
attr configname General
attr csize 30
attr ctlg 10^3
attr datetime 20140425-15:54:41
attr experiment General
attr inifile omnetpp.ini
attr iterationvars "$net=one_cache_scenario, $rep=1, $priceratiovalue=2, $a=1.2, $ctlg=10^3, $F=nrr, $ttl=1000, $D=costprob0.2, $R=lru, $csize=30"
attr iterationvars2 "$net=one_cache_scenario, $rep=1, $priceratiovalue=2, $a=1.2, $ctlg=10^3, $F=nrr, $ttl=1000, $D=costprob0.2, $R=lru, $csize=30, $repetition=0"
attr measurement "$net=one_cache_scenario, $rep=1, $priceratiovalue=2, $a=1.2, $ctlg=10^3, $F=nrr, $ttl=1000, $D=costprob0.2, $R=lru, $csize=30"
attr net one_cache_scenario
attr network networks.${net=one_cache_scenario}_network
attr priceratiovalue 2
attr processid 12432
attr rep 1
attr repetition 0
attr replication #0
attr resultdir results
attr runnumber 22
attr seedset 1
attr ttl 1000

scalar . 	a 	1.2
scalar . 	csize 	30
scalar . 	priceratiovalue 	2
scalar . 	rep 	1
scalar . 	ttl 	1000
scalar one_cache_scenario_network.content_distribution 	repo-0 	3
scalar one_cache_scenario_network.content_distribution 	repo-1 	4
scalar one_cache_scenario_network.content_distribution 	client-0 	0
scalar one_cache_scenario_network.content_distribution 	repo-0_card 	504
scalar one_cache_scenario_network.content_distribution 	repo-1_card 	496
scalar one_cache_scenario_network.statistics 	p_hit 	0.38425117627911
scalar one_cache_scenario_network.statistics 	interests 	60827.4
scalar one_cache_scenario_network.statistics 	data 	24969.6
scalar one_cache_scenario_network.statistics 	hdistance 	0.69635058481
scalar one_cache_scenario_network.statistics 	avg_time 	0
scalar one_cache_scenario_network.statistics 	downloads 	179289
scalar one_cache_scenario_network.statistics 	total_cost 	30879
scalar one_cache_scenario_network.statistics 	interests_sent 	179289
scalar one_cache_scenario_network.node[0].core_layer 	interests[0] 	179289
scalar one_cache_scenario_network.node[0].core_layer 	data[0] 	62424
scalar one_cache_scenario_network.node[0].core_layer 	repo_int[0] 	62424
scalar one_cache_scenario_network.node[0].content_store 	p_hit[0] 	0.651824707595
scalar one_cache_scenario_network.node[0].content_store 	hits[0] 	116865
scalar one_cache_scenario_network.node[0].content_store 	misses[0] 	62424
scalar one_cache_scenario_network.node[0].content_store 	decision_yes[0] 	6227
scalar one_cache_scenario_network.node[0].content_store 	decision_no[0] 	56197
scalar one_cache_scenario_network.node[1].core_layer 	interests[1] 	32211
scalar one_cache_scenario_network.node[1].core_layer 	data[1] 	32211
scalar one_cache_scenario_network.node[1].content_store 	p_hit[1] 	0
scalar one_cache_scenario_network.node[1].content_store 	hits[1] 	0
scalar one_cache_scenario_network.node[1].content_store 	misses[1] 	32211
scalar one_cache_scenario_network.node[1].content_store 	decision_yes[1] 	0
scalar one_cache_scenario_network.node[1].content_store 	decision_no[1] 	32211
scalar one_cache_scenario_network.node[2].core_layer 	interests[2] 	30213
scalar one_cache_scenario_network.node[2].core_layer 	data[2] 	30213
scalar one_cache_scenario_network.node[2].content_store 	p_hit[2] 	0
scalar one_cache_scenario_network.node[2].content_store 	hits[2] 	0
scalar one_cache_scenario_network.node[2].content_store 	misses[2] 	30213
scalar one_cache_scenario_network.node[2].content_store 	decision_yes[2] 	0
scalar one_cache_scenario_network.node[2].content_store 	decision_no[2] 	30213
scalar one_cache_scenario_network.node[3].core_layer 	interests[3] 	32211
scalar one_cache_scenario_network.node[3].core_layer 	repo_load[3] 	32211
scalar one_cache_scenario_network.node[3].core_layer 	data[3] 	0
scalar one_cache_scenario_network.node[3].content_store 	p_hit[3] 	0
scalar one_cache_scenario_network.node[3].content_store 	hits[3] 	0
scalar one_cache_scenario_network.node[3].content_store 	misses[3] 	32211
scalar one_cache_scenario_network.node[3].content_store 	decision_yes[3] 	0
scalar one_cache_scenario_network.node[3].content_store 	decision_no[3] 	32211
scalar one_cache_scenario_network.node[4].core_layer 	interests[4] 	30213
scalar one_cache_scenario_network.node[4].core_layer 	repo_load[4] 	30213
scalar one_cache_scenario_network.node[4].core_layer 	data[4] 	0
scalar one_cache_scenario_network.node[4].content_store 	p_hit[4] 	0
scalar one_cache_scenario_network.node[4].content_store 	hits[4] 	0
scalar one_cache_scenario_network.node[4].content_store 	misses[4] 	30213
scalar one_cache_scenario_network.node[4].content_store 	decision_yes[4] 	0
scalar one_cache_scenario_network.node[4].content_store 	decision_no[4] 	30213
scalar one_cache_scenario_network.client[0] 	hdistance[0] 	0.69635058481
scalar one_cache_scenario_network.client[0] 	downloads[0] 	179289
scalar one_cache_scenario_network.client[0] 	avg_time[0] 	0
scalar one_cache_scenario_network.client[0] 	interests_sent[0] 	179289
