version 2
run General-2062-20140425-16:36:39-14635
attr D costprob0.2
attr F nrr
attr R lru
attr a 1.2
attr configname General
attr csize 30
attr ctlg 10^3
attr datetime 20140425-16:36:39
attr experiment General
attr inifile omnetpp.ini
attr iterationvars "$net=one_cache_scenario, $rep=18, $priceratiovalue=2, $a=1.2, $ctlg=10^3, $F=nrr, $ttl=1000, $D=costprob0.2, $R=lru, $csize=30"
attr iterationvars2 "$net=one_cache_scenario, $rep=18, $priceratiovalue=2, $a=1.2, $ctlg=10^3, $F=nrr, $ttl=1000, $D=costprob0.2, $R=lru, $csize=30, $repetition=0"
attr measurement "$net=one_cache_scenario, $rep=18, $priceratiovalue=2, $a=1.2, $ctlg=10^3, $F=nrr, $ttl=1000, $D=costprob0.2, $R=lru, $csize=30"
attr net one_cache_scenario
attr network networks.${net=one_cache_scenario}_network
attr priceratiovalue 2
attr processid 14635
attr rep 18
attr repetition 0
attr replication #0
attr resultdir results
attr runnumber 2062
attr seedset 18
attr ttl 1000

scalar . 	a 	1.2
scalar . 	csize 	30
scalar . 	priceratiovalue 	2
scalar . 	rep 	18
scalar . 	ttl 	1000
scalar one_cache_scenario_network.content_distribution 	repo-0 	3
scalar one_cache_scenario_network.content_distribution 	repo-1 	4
scalar one_cache_scenario_network.content_distribution 	client-0 	0
scalar one_cache_scenario_network.content_distribution 	repo-0_card 	500
scalar one_cache_scenario_network.content_distribution 	repo-1_card 	500
scalar one_cache_scenario_network.statistics 	p_hit 	0.38337369633999
scalar one_cache_scenario_network.statistics 	interests 	61442.4
scalar one_cache_scenario_network.statistics 	data 	25258
scalar one_cache_scenario_network.statistics 	hdistance 	0.69803561755895
scalar one_cache_scenario_network.statistics 	avg_time 	0
scalar one_cache_scenario_network.statistics 	downloads 	180922
scalar one_cache_scenario_network.statistics 	total_cost 	31106
scalar one_cache_scenario_network.statistics 	interests_sent 	180922
scalar one_cache_scenario_network.node[0].core_layer 	interests[0] 	180922
scalar one_cache_scenario_network.node[0].core_layer 	data[0] 	63145
scalar one_cache_scenario_network.node[0].core_layer 	repo_int[0] 	63145
scalar one_cache_scenario_network.node[0].content_store 	p_hit[0] 	0.65098219122053
scalar one_cache_scenario_network.node[0].content_store 	hits[0] 	117777
scalar one_cache_scenario_network.node[0].content_store 	misses[0] 	63145
scalar one_cache_scenario_network.node[0].content_store 	decision_yes[0] 	6245
scalar one_cache_scenario_network.node[0].content_store 	decision_no[0] 	56900
scalar one_cache_scenario_network.node[1].core_layer 	interests[1] 	32969
scalar one_cache_scenario_network.node[1].core_layer 	data[1] 	32969
scalar one_cache_scenario_network.node[1].content_store 	p_hit[1] 	0
scalar one_cache_scenario_network.node[1].content_store 	hits[1] 	0
scalar one_cache_scenario_network.node[1].content_store 	misses[1] 	32969
scalar one_cache_scenario_network.node[1].content_store 	decision_yes[1] 	0
scalar one_cache_scenario_network.node[1].content_store 	decision_no[1] 	32969
scalar one_cache_scenario_network.node[2].core_layer 	interests[2] 	30176
scalar one_cache_scenario_network.node[2].core_layer 	data[2] 	30176
scalar one_cache_scenario_network.node[2].content_store 	p_hit[2] 	0
scalar one_cache_scenario_network.node[2].content_store 	hits[2] 	0
scalar one_cache_scenario_network.node[2].content_store 	misses[2] 	30176
scalar one_cache_scenario_network.node[2].content_store 	decision_yes[2] 	0
scalar one_cache_scenario_network.node[2].content_store 	decision_no[2] 	30176
scalar one_cache_scenario_network.node[3].core_layer 	interests[3] 	32969
scalar one_cache_scenario_network.node[3].core_layer 	repo_load[3] 	32969
scalar one_cache_scenario_network.node[3].core_layer 	data[3] 	0
scalar one_cache_scenario_network.node[3].content_store 	p_hit[3] 	0
scalar one_cache_scenario_network.node[3].content_store 	hits[3] 	0
scalar one_cache_scenario_network.node[3].content_store 	misses[3] 	32969
scalar one_cache_scenario_network.node[3].content_store 	decision_yes[3] 	0
scalar one_cache_scenario_network.node[3].content_store 	decision_no[3] 	32969
scalar one_cache_scenario_network.node[4].core_layer 	interests[4] 	30176
scalar one_cache_scenario_network.node[4].core_layer 	repo_load[4] 	30176
scalar one_cache_scenario_network.node[4].core_layer 	data[4] 	0
scalar one_cache_scenario_network.node[4].content_store 	p_hit[4] 	0
scalar one_cache_scenario_network.node[4].content_store 	hits[4] 	0
scalar one_cache_scenario_network.node[4].content_store 	misses[4] 	30176
scalar one_cache_scenario_network.node[4].content_store 	decision_yes[4] 	0
scalar one_cache_scenario_network.node[4].content_store 	decision_no[4] 	30176
scalar one_cache_scenario_network.client[0] 	hdistance[0] 	0.69803561755895
scalar one_cache_scenario_network.client[0] 	downloads[0] 	180922
scalar one_cache_scenario_network.client[0] 	avg_time[0] 	0
scalar one_cache_scenario_network.client[0] 	interests_sent[0] 	180922
