version 2
run General-1-20140626-15:42:59-16171
attr D lce
attr F nrr
attr R lru
attr a 1
attr configname General
attr csize 1e3
attr ctlg 1e5
attr datetime 20140626-15:42:59
attr experiment General
attr inifile omnetpp.ini
attr iterationvars "$net=geant_cost, $rep=7, $priceratiovalue=10, $weights=0.333_0.333_0.334, $lambda=100, $a=1, $ctlg=1e5, $F=nrr, $ttl=1000, $D=lce, $xi=1, $R=lru, $csize=1e3, $pricebits=0, $mytime=1800"
attr iterationvars2 "$net=geant_cost, $rep=7, $priceratiovalue=10, $weights=0.333_0.333_0.334, $lambda=100, $a=1, $ctlg=1e5, $F=nrr, $ttl=1000, $D=lce, $xi=1, $R=lru, $csize=1e3, $pricebits=0, $mytime=1800, $repetition=0"
attr lambda 100
attr measurement "$net=geant_cost, $rep=7, $priceratiovalue=10, $weights=0.333_0.333_0.334, $lambda=100, $a=1, $ctlg=1e5, $F=nrr, $ttl=1000, $D=lce, $xi=1, $R=lru, $csize=1e3, $pricebits=0, $mytime=1800"
attr mytime 1800
attr net geant_cost
attr network "networks.${net=geant_cost, abilene_cost}_network"
attr pricebits 0
attr priceratiovalue 10
attr processid 16171
attr rep 7
attr repetition 0
attr replication #0
attr resultdir results
attr runnumber 1
attr seedset 7
attr ttl 1000
attr weights 0.333_0.333_0.334
attr xi 1

scalar . 	a 	1
scalar . 	csize 	1e3
scalar . 	ctlg 	1e5
scalar . 	lambda 	100
scalar . 	mytime 	1800
scalar . 	pricebits 	0
scalar . 	priceratiovalue 	10
scalar . 	rep 	7
scalar . 	ttl 	1000
scalar . 	xi 	1
scalar geant_cost_network.content_distribution 	repo-0 	22
scalar geant_cost_network.content_distribution 	repo-1 	23
scalar geant_cost_network.content_distribution 	repo-2 	24
scalar geant_cost_network.content_distribution 	client-0 	20
scalar geant_cost_network.content_distribution 	client-1 	10
scalar geant_cost_network.content_distribution 	client-2 	12
scalar geant_cost_network.content_distribution 	client-3 	9
scalar geant_cost_network.content_distribution 	client-4 	5
scalar geant_cost_network.content_distribution 	repo-0_card 	33104
scalar geant_cost_network.content_distribution 	repo-1_card 	33508
scalar geant_cost_network.content_distribution 	repo-2_card 	33388
scalar geant_cost_network.statistics 	repo_popularity[0] 	0.34609068621501
scalar geant_cost_network.statistics 	repo_popularity[1] 	0.29388785961082
scalar geant_cost_network.statistics 	repo_popularity[2] 	0.36002145417417
scalar geant_cost_network.statistics 	stabilization_time 	36060
scalar geant_cost_network.node[7].face$o[4].channel 	price[7] 	0
scalar geant_cost_network.node[7].face$o[4].channel 	represented_price[7] 	0
scalar geant_cost_network.node[8].face$o[3].channel 	price[8] 	0
scalar geant_cost_network.node[8].face$o[3].channel 	represented_price[8] 	0
scalar geant_cost_network.node[21].face$o[5].channel 	price[21] 	0
scalar geant_cost_network.node[21].face$o[5].channel 	represented_price[21] 	0
scalar geant_cost_network.node[22].face$o[1].channel 	price[22] 	0
scalar geant_cost_network.node[22].face$o[1].channel 	represented_price[22] 	0
scalar geant_cost_network.node[23].face$o[1].channel 	price[23] 	1
scalar geant_cost_network.node[23].face$o[1].channel 	represented_price[23] 	1
scalar geant_cost_network.node[24].face$o[1].channel 	price[24] 	10
scalar geant_cost_network.node[24].face$o[1].channel 	represented_price[24] 	10
scalar geant_cost_network.statistics 	p_hit 	0.12466411680347
scalar geant_cost_network.statistics 	interests 	125653.8
scalar geant_cost_network.statistics 	data 	89623.92
scalar geant_cost_network.statistics 	hdistance 	3.0582090089185
scalar geant_cost_network.statistics 	avg_time 	0.007900269158
scalar geant_cost_network.statistics 	downloads 	898538
scalar geant_cost_network.statistics 	total_cost 	1870292
scalar geant_cost_network.statistics 	total_replicas 	100000
scalar geant_cost_network.statistics 	inner_hit 	0.43780786121455
scalar geant_cost_network.statistics 	interests_sent 	900751
scalar geant_cost_network.node[0].core_layer 	interests[0] 	0
scalar geant_cost_network.node[0].core_layer 	data[0] 	0
scalar geant_cost_network.node[0].core_layer 	repo_int[0] 	505151
scalar geant_cost_network.node[0].content_store 	p_hit[0] 	-nan
scalar geant_cost_network.node[0].content_store 	hits[0] 	0
scalar geant_cost_network.node[0].content_store 	misses[0] 	0
scalar geant_cost_network.node[0].content_store 	decision_yes[0] 	0
scalar geant_cost_network.node[0].content_store 	decision_no[0] 	0
scalar geant_cost_network.node[0].content_store 	decision_ratio[0] 	0
scalar geant_cost_network.node[1].core_layer 	interests[1] 	0
scalar geant_cost_network.node[1].core_layer 	data[1] 	0
scalar geant_cost_network.node[1].content_store 	p_hit[1] 	-nan
scalar geant_cost_network.node[1].content_store 	hits[1] 	0
scalar geant_cost_network.node[1].content_store 	misses[1] 	0
scalar geant_cost_network.node[1].content_store 	decision_yes[1] 	0
scalar geant_cost_network.node[1].content_store 	decision_no[1] 	0
scalar geant_cost_network.node[1].content_store 	decision_ratio[1] 	0
scalar geant_cost_network.node[2].core_layer 	interests[2] 	0
scalar geant_cost_network.node[2].core_layer 	data[2] 	0
scalar geant_cost_network.node[2].content_store 	p_hit[2] 	-nan
scalar geant_cost_network.node[2].content_store 	hits[2] 	0
scalar geant_cost_network.node[2].content_store 	misses[2] 	0
scalar geant_cost_network.node[2].content_store 	decision_yes[2] 	0
scalar geant_cost_network.node[2].content_store 	decision_no[2] 	0
scalar geant_cost_network.node[2].content_store 	decision_ratio[2] 	0
scalar geant_cost_network.node[3].core_layer 	interests[3] 	147308
scalar geant_cost_network.node[3].core_layer 	data[3] 	143131
scalar geant_cost_network.node[3].content_store 	p_hit[3] 	0.028355554348712
scalar geant_cost_network.node[3].content_store 	hits[3] 	4177
scalar geant_cost_network.node[3].content_store 	misses[3] 	143131
scalar geant_cost_network.node[3].content_store 	decision_yes[3] 	143102
scalar geant_cost_network.node[3].content_store 	decision_no[3] 	0
scalar geant_cost_network.node[3].content_store 	decision_ratio[3] 	1
scalar geant_cost_network.node[4].core_layer 	interests[4] 	217974
scalar geant_cost_network.node[4].core_layer 	data[4] 	216921
scalar geant_cost_network.node[4].content_store 	p_hit[4] 	0.0048262636828246
scalar geant_cost_network.node[4].content_store 	hits[4] 	1052
scalar geant_cost_network.node[4].content_store 	misses[4] 	216922
scalar geant_cost_network.node[4].content_store 	decision_yes[4] 	216901
scalar geant_cost_network.node[4].content_store 	decision_no[4] 	0
scalar geant_cost_network.node[4].content_store 	decision_ratio[4] 	1
scalar geant_cost_network.node[5].core_layer 	interests[5] 	183032
scalar geant_cost_network.node[5].core_layer 	data[5] 	141243
scalar geant_cost_network.node[5].content_store 	p_hit[5] 	0.22579111849294
scalar geant_cost_network.node[5].content_store 	hits[5] 	41327
scalar geant_cost_network.node[5].content_store 	misses[5] 	141705
scalar geant_cost_network.node[5].content_store 	decision_yes[5] 	141243
scalar geant_cost_network.node[5].content_store 	decision_no[5] 	0
scalar geant_cost_network.node[5].content_store 	decision_ratio[5] 	1
scalar geant_cost_network.node[6].core_layer 	interests[6] 	70132
scalar geant_cost_network.node[6].core_layer 	data[6] 	67174
scalar geant_cost_network.node[6].content_store 	p_hit[6] 	0.042177607939314
scalar geant_cost_network.node[6].content_store 	hits[6] 	2958
scalar geant_cost_network.node[6].content_store 	misses[6] 	67174
scalar geant_cost_network.node[6].content_store 	decision_yes[6] 	67174
scalar geant_cost_network.node[6].content_store 	decision_no[6] 	0
scalar geant_cost_network.node[6].content_store 	decision_ratio[6] 	1
scalar geant_cost_network.node[7].core_layer 	interests[7] 	236959
scalar geant_cost_network.node[7].core_layer 	data[7] 	235404
scalar geant_cost_network.node[7].content_store 	p_hit[7] 	0.006553876408999
scalar geant_cost_network.node[7].content_store 	hits[7] 	1553
scalar geant_cost_network.node[7].content_store 	misses[7] 	235406
scalar geant_cost_network.node[7].content_store 	decision_yes[7] 	235396
scalar geant_cost_network.node[7].content_store 	decision_no[7] 	0
scalar geant_cost_network.node[7].content_store 	decision_ratio[7] 	1
scalar geant_cost_network.node[8].core_layer 	interests[8] 	238858
scalar geant_cost_network.node[8].core_layer 	data[8] 	237221
scalar geant_cost_network.node[8].content_store 	p_hit[8] 	0.0068534443058219
scalar geant_cost_network.node[8].content_store 	hits[8] 	1637
scalar geant_cost_network.node[8].content_store 	misses[8] 	237221
scalar geant_cost_network.node[8].content_store 	decision_yes[8] 	237212
scalar geant_cost_network.node[8].content_store 	decision_no[8] 	0
scalar geant_cost_network.node[8].content_store 	decision_ratio[8] 	1
scalar geant_cost_network.node[9].core_layer 	interests[9] 	357872
scalar geant_cost_network.node[9].core_layer 	data[9] 	316034
scalar geant_cost_network.node[9].content_store 	p_hit[9] 	0.11435373541378
scalar geant_cost_network.node[9].content_store 	hits[9] 	40924
scalar geant_cost_network.node[9].content_store 	misses[9] 	316948
scalar geant_cost_network.node[9].content_store 	decision_yes[9] 	315990
scalar geant_cost_network.node[9].content_store 	decision_no[9] 	0
scalar geant_cost_network.node[9].content_store 	decision_ratio[9] 	1
scalar geant_cost_network.node[10].core_layer 	interests[10] 	190522
scalar geant_cost_network.node[10].core_layer 	data[10] 	139036
scalar geant_cost_network.node[10].content_store 	p_hit[10] 	0.26847293225979
scalar geant_cost_network.node[10].content_store 	hits[10] 	51150
scalar geant_cost_network.node[10].content_store 	misses[10] 	139372
scalar geant_cost_network.node[10].content_store 	decision_yes[10] 	139036
scalar geant_cost_network.node[10].content_store 	decision_no[10] 	0
scalar geant_cost_network.node[10].content_store 	decision_ratio[10] 	1
scalar geant_cost_network.node[11].core_layer 	interests[11] 	0
scalar geant_cost_network.node[11].core_layer 	data[11] 	0
scalar geant_cost_network.node[11].content_store 	p_hit[11] 	-nan
scalar geant_cost_network.node[11].content_store 	hits[11] 	0
scalar geant_cost_network.node[11].content_store 	misses[11] 	0
scalar geant_cost_network.node[11].content_store 	decision_yes[11] 	0
scalar geant_cost_network.node[11].content_store 	decision_no[11] 	0
scalar geant_cost_network.node[11].content_store 	decision_ratio[11] 	0
scalar geant_cost_network.node[12].core_layer 	interests[12] 	317941
scalar geant_cost_network.node[12].core_layer 	data[12] 	263394
scalar geant_cost_network.node[12].content_store 	p_hit[12] 	0.16617234015116
scalar geant_cost_network.node[12].content_store 	hits[12] 	52833
scalar geant_cost_network.node[12].content_store 	misses[12] 	265108
scalar geant_cost_network.node[12].content_store 	decision_yes[12] 	263385
scalar geant_cost_network.node[12].content_store 	decision_no[12] 	0
scalar geant_cost_network.node[12].content_store 	decision_ratio[12] 	1
scalar geant_cost_network.node[13].core_layer 	interests[13] 	57002
scalar geant_cost_network.node[13].core_layer 	data[13] 	1258
scalar geant_cost_network.node[13].content_store 	p_hit[13] 	0.97793059892635
scalar geant_cost_network.node[13].content_store 	hits[13] 	55744
scalar geant_cost_network.node[13].content_store 	misses[13] 	1258
scalar geant_cost_network.node[13].content_store 	decision_yes[13] 	1258
scalar geant_cost_network.node[13].content_store 	decision_no[13] 	0
scalar geant_cost_network.node[13].content_store 	decision_ratio[13] 	1
scalar geant_cost_network.node[14].core_layer 	interests[14] 	90047
scalar geant_cost_network.node[14].core_layer 	data[14] 	67484
scalar geant_cost_network.node[14].content_store 	p_hit[14] 	0.24830366364232
scalar geant_cost_network.node[14].content_store 	hits[14] 	22359
scalar geant_cost_network.node[14].content_store 	misses[14] 	67688
scalar geant_cost_network.node[14].content_store 	decision_yes[14] 	67477
scalar geant_cost_network.node[14].content_store 	decision_no[14] 	0
scalar geant_cost_network.node[14].content_store 	decision_ratio[14] 	1
scalar geant_cost_network.node[15].core_layer 	interests[15] 	68377
scalar geant_cost_network.node[15].core_layer 	data[15] 	5
scalar geant_cost_network.node[15].content_store 	p_hit[15] 	0.99992687599631
scalar geant_cost_network.node[15].content_store 	hits[15] 	68372
scalar geant_cost_network.node[15].content_store 	misses[15] 	5
scalar geant_cost_network.node[15].content_store 	decision_yes[15] 	5
scalar geant_cost_network.node[15].content_store 	decision_no[15] 	0
scalar geant_cost_network.node[15].content_store 	decision_ratio[15] 	1
scalar geant_cost_network.node[16].core_layer 	interests[16] 	0
scalar geant_cost_network.node[16].core_layer 	data[16] 	0
scalar geant_cost_network.node[16].content_store 	p_hit[16] 	-nan
scalar geant_cost_network.node[16].content_store 	hits[16] 	0
scalar geant_cost_network.node[16].content_store 	misses[16] 	0
scalar geant_cost_network.node[16].content_store 	decision_yes[16] 	0
scalar geant_cost_network.node[16].content_store 	decision_no[16] 	0
scalar geant_cost_network.node[16].content_store 	decision_ratio[16] 	0
scalar geant_cost_network.node[17].core_layer 	interests[17] 	0
scalar geant_cost_network.node[17].core_layer 	data[17] 	0
scalar geant_cost_network.node[17].content_store 	p_hit[17] 	-nan
scalar geant_cost_network.node[17].content_store 	hits[17] 	0
scalar geant_cost_network.node[17].content_store 	misses[17] 	0
scalar geant_cost_network.node[17].content_store 	decision_yes[17] 	0
scalar geant_cost_network.node[17].content_store 	decision_no[17] 	0
scalar geant_cost_network.node[17].content_store 	decision_ratio[17] 	0
scalar geant_cost_network.node[18].core_layer 	interests[18] 	107850
scalar geant_cost_network.node[18].core_layer 	data[18] 	101934
scalar geant_cost_network.node[18].content_store 	p_hit[18] 	0.054853963838665
scalar geant_cost_network.node[18].content_store 	hits[18] 	5916
scalar geant_cost_network.node[18].content_store 	misses[18] 	101934
scalar geant_cost_network.node[18].content_store 	decision_yes[18] 	101934
scalar geant_cost_network.node[18].content_store 	decision_no[18] 	0
scalar geant_cost_network.node[18].content_store 	decision_ratio[18] 	1
scalar geant_cost_network.node[19].core_layer 	interests[19] 	0
scalar geant_cost_network.node[19].core_layer 	data[19] 	0
scalar geant_cost_network.node[19].content_store 	p_hit[19] 	-nan
scalar geant_cost_network.node[19].content_store 	hits[19] 	0
scalar geant_cost_network.node[19].content_store 	misses[19] 	0
scalar geant_cost_network.node[19].content_store 	decision_yes[19] 	0
scalar geant_cost_network.node[19].content_store 	decision_no[19] 	0
scalar geant_cost_network.node[19].content_store 	decision_ratio[19] 	0
scalar geant_cost_network.node[20].core_layer 	interests[20] 	180218
scalar geant_cost_network.node[20].core_layer 	data[20] 	140155
scalar geant_cost_network.node[20].content_store 	p_hit[20] 	0.22036089624788
scalar geant_cost_network.node[20].content_store 	hits[20] 	39713
scalar geant_cost_network.node[20].content_store 	misses[20] 	140505
scalar geant_cost_network.node[20].content_store 	decision_yes[20] 	140155
scalar geant_cost_network.node[20].content_store 	decision_no[20] 	0
scalar geant_cost_network.node[20].content_store 	decision_ratio[20] 	1
scalar geant_cost_network.node[21].core_layer 	interests[21] 	172102
scalar geant_cost_network.node[21].core_layer 	data[21] 	170204
scalar geant_cost_network.node[21].content_store 	p_hit[21] 	0.011028343656669
scalar geant_cost_network.node[21].content_store 	hits[21] 	1898
scalar geant_cost_network.node[21].content_store 	misses[21] 	170204
scalar geant_cost_network.node[21].content_store 	decision_yes[21] 	170204
scalar geant_cost_network.node[21].content_store 	decision_no[21] 	0
scalar geant_cost_network.node[21].content_store 	decision_ratio[21] 	1
scalar geant_cost_network.node[22].core_layer 	interests[22] 	166695
scalar geant_cost_network.node[22].core_layer 	repo_load[22] 	166695
scalar geant_cost_network.node[22].core_layer 	data[22] 	0
scalar geant_cost_network.node[22].content_store 	p_hit[22] 	0
scalar geant_cost_network.node[22].content_store 	hits[22] 	0
scalar geant_cost_network.node[22].content_store 	misses[22] 	166695
scalar geant_cost_network.node[22].content_store 	decision_yes[22] 	0
scalar geant_cost_network.node[22].content_store 	decision_no[22] 	166695
scalar geant_cost_network.node[22].content_store 	decision_ratio[22] 	0
scalar geant_cost_network.node[23].core_layer 	interests[23] 	168252
scalar geant_cost_network.node[23].core_layer 	repo_load[23] 	168252
scalar geant_cost_network.node[23].core_layer 	data[23] 	0
scalar geant_cost_network.node[23].content_store 	p_hit[23] 	0
scalar geant_cost_network.node[23].content_store 	hits[23] 	0
scalar geant_cost_network.node[23].content_store 	misses[23] 	168252
scalar geant_cost_network.node[23].content_store 	decision_yes[23] 	0
scalar geant_cost_network.node[23].content_store 	decision_no[23] 	168252
scalar geant_cost_network.node[23].content_store 	decision_ratio[23] 	0
scalar geant_cost_network.node[24].core_layer 	interests[24] 	170204
scalar geant_cost_network.node[24].core_layer 	repo_load[24] 	170204
scalar geant_cost_network.node[24].core_layer 	data[24] 	0
scalar geant_cost_network.node[24].content_store 	p_hit[24] 	0
scalar geant_cost_network.node[24].content_store 	hits[24] 	0
scalar geant_cost_network.node[24].content_store 	misses[24] 	170204
scalar geant_cost_network.node[24].content_store 	decision_yes[24] 	0
scalar geant_cost_network.node[24].content_store 	decision_no[24] 	170204
scalar geant_cost_network.node[24].content_store 	decision_ratio[24] 	0
scalar geant_cost_network.client[5] 	hdistance[5] 	2.8068537042826
scalar geant_cost_network.client[5] 	downloads[5] 	179144
scalar geant_cost_network.client[5] 	avg_time[5] 	0.010118312065
scalar geant_cost_network.client[5] 	interests_sent[5] 	179604
scalar geant_cost_network.client[9] 	hdistance[9] 	2.8671530257002
scalar geant_cost_network.client[9] 	downloads[9] 	180388
scalar geant_cost_network.client[9] 	avg_time[9] 	0.006332215419
scalar geant_cost_network.client[9] 	interests_sent[9] 	180750
scalar geant_cost_network.client[10] 	hdistance[10] 	3.5703965895304
scalar geant_cost_network.client[10] 	downloads[10] 	179682
scalar geant_cost_network.client[10] 	avg_time[10] 	0.007751117389
scalar geant_cost_network.client[10] 	interests_sent[10] 	180018
scalar geant_cost_network.client[12] 	hdistance[12] 	2.8820765222039
scalar geant_cost_network.client[12] 	downloads[12] 	179608
scalar geant_cost_network.client[12] 	avg_time[12] 	0.007681519544
scalar geant_cost_network.client[12] 	interests_sent[12] 	180313
scalar geant_cost_network.client[20] 	hdistance[20] 	3.1645652028757
scalar geant_cost_network.client[20] 	downloads[20] 	179716
scalar geant_cost_network.client[20] 	avg_time[20] 	0.007618181377
scalar geant_cost_network.client[20] 	interests_sent[20] 	180066
