version 2
run General-9-20140626-16:19:26-7157
attr D lce
attr F nrr
attr R lru
attr a 1
attr configname General
attr csize 1e3
attr ctlg 1e5
attr datetime 20140626-16:19:26
attr experiment General
attr inifile omnetpp.ini
attr iterationvars "$net=geant_cost, $rep=10, $priceratiovalue=10, $weights=0.333_0.333_0.334, $lambda=100, $a=1, $ctlg=1e5, $F=nrr, $ttl=1000, $D=lce, $xi=1, $R=lru, $csize=1e3, $pricebits=0, $mytime=1800"
attr iterationvars2 "$net=geant_cost, $rep=10, $priceratiovalue=10, $weights=0.333_0.333_0.334, $lambda=100, $a=1, $ctlg=1e5, $F=nrr, $ttl=1000, $D=lce, $xi=1, $R=lru, $csize=1e3, $pricebits=0, $mytime=1800, $repetition=0"
attr lambda 100
attr measurement "$net=geant_cost, $rep=10, $priceratiovalue=10, $weights=0.333_0.333_0.334, $lambda=100, $a=1, $ctlg=1e5, $F=nrr, $ttl=1000, $D=lce, $xi=1, $R=lru, $csize=1e3, $pricebits=0, $mytime=1800"
attr mytime 1800
attr net geant_cost
attr network "networks.${net=geant_cost, abilene_cost}_network"
attr pricebits 0
attr priceratiovalue 10
attr processid 7157
attr rep 10
attr repetition 0
attr replication #0
attr resultdir results
attr runnumber 9
attr seedset 10
attr ttl 1000
attr weights 0.333_0.333_0.334
attr xi 1

scalar . 	a 	1
scalar . 	csize 	1e3
scalar . 	ctlg 	1e5
scalar . 	lambda 	100
scalar . 	mytime 	1800
scalar . 	pricebits 	0
scalar . 	priceratiovalue 	10
scalar . 	rep 	10
scalar . 	ttl 	1000
scalar . 	xi 	1
scalar geant_cost_network.content_distribution 	repo-0 	22
scalar geant_cost_network.content_distribution 	repo-1 	23
scalar geant_cost_network.content_distribution 	repo-2 	24
scalar geant_cost_network.content_distribution 	client-0 	20
scalar geant_cost_network.content_distribution 	client-1 	10
scalar geant_cost_network.content_distribution 	client-2 	12
scalar geant_cost_network.content_distribution 	client-3 	9
scalar geant_cost_network.content_distribution 	client-4 	5
scalar geant_cost_network.content_distribution 	repo-0_card 	33053
scalar geant_cost_network.content_distribution 	repo-1_card 	33534
scalar geant_cost_network.content_distribution 	repo-2_card 	33413
scalar geant_cost_network.statistics 	repo_popularity[0] 	0.42335737931898
scalar geant_cost_network.statistics 	repo_popularity[1] 	0.27871951512344
scalar geant_cost_network.statistics 	repo_popularity[2] 	0.29792310555758
scalar geant_cost_network.statistics 	stabilization_time 	36060
scalar geant_cost_network.node[7].face$o[4].channel 	price[7] 	0
scalar geant_cost_network.node[7].face$o[4].channel 	represented_price[7] 	0
scalar geant_cost_network.node[8].face$o[3].channel 	price[8] 	0
scalar geant_cost_network.node[8].face$o[3].channel 	represented_price[8] 	0
scalar geant_cost_network.node[21].face$o[5].channel 	price[21] 	0
scalar geant_cost_network.node[21].face$o[5].channel 	represented_price[21] 	0
scalar geant_cost_network.node[22].face$o[1].channel 	price[22] 	0
scalar geant_cost_network.node[22].face$o[1].channel 	represented_price[22] 	0
scalar geant_cost_network.node[23].face$o[1].channel 	price[23] 	1
scalar geant_cost_network.node[23].face$o[1].channel 	represented_price[23] 	1
scalar geant_cost_network.node[24].face$o[1].channel 	price[24] 	10
scalar geant_cost_network.node[24].face$o[1].channel 	represented_price[24] 	10
scalar geant_cost_network.statistics 	p_hit 	0.12499242460488
scalar geant_cost_network.statistics 	interests 	125406
scalar geant_cost_network.statistics 	data 	89418.28
scalar geant_cost_network.statistics 	hdistance 	3.0537719681084
scalar geant_cost_network.statistics 	avg_time 	0.007631221673
scalar geant_cost_network.statistics 	downloads 	897815
scalar geant_cost_network.statistics 	total_cost 	1792656
scalar geant_cost_network.statistics 	total_replicas 	100000
scalar geant_cost_network.statistics 	inner_hit 	0.43817601621715
scalar geant_cost_network.statistics 	interests_sent 	899690
scalar geant_cost_network.node[0].core_layer 	interests[0] 	0
scalar geant_cost_network.node[0].core_layer 	data[0] 	0
scalar geant_cost_network.node[0].core_layer 	repo_int[0] 	504414
scalar geant_cost_network.node[0].content_store 	p_hit[0] 	-nan
scalar geant_cost_network.node[0].content_store 	hits[0] 	0
scalar geant_cost_network.node[0].content_store 	misses[0] 	0
scalar geant_cost_network.node[0].content_store 	decision_yes[0] 	0
scalar geant_cost_network.node[0].content_store 	decision_no[0] 	0
scalar geant_cost_network.node[0].content_store 	decision_ratio[0] 	0
scalar geant_cost_network.node[1].core_layer 	interests[1] 	0
scalar geant_cost_network.node[1].core_layer 	data[1] 	0
scalar geant_cost_network.node[1].content_store 	p_hit[1] 	-nan
scalar geant_cost_network.node[1].content_store 	hits[1] 	0
scalar geant_cost_network.node[1].content_store 	misses[1] 	0
scalar geant_cost_network.node[1].content_store 	decision_yes[1] 	0
scalar geant_cost_network.node[1].content_store 	decision_no[1] 	0
scalar geant_cost_network.node[1].content_store 	decision_ratio[1] 	0
scalar geant_cost_network.node[2].core_layer 	interests[2] 	0
scalar geant_cost_network.node[2].core_layer 	data[2] 	0
scalar geant_cost_network.node[2].content_store 	p_hit[2] 	-nan
scalar geant_cost_network.node[2].content_store 	hits[2] 	0
scalar geant_cost_network.node[2].content_store 	misses[2] 	0
scalar geant_cost_network.node[2].content_store 	decision_yes[2] 	0
scalar geant_cost_network.node[2].content_store 	decision_no[2] 	0
scalar geant_cost_network.node[2].content_store 	decision_ratio[2] 	0
scalar geant_cost_network.node[3].core_layer 	interests[3] 	141654
scalar geant_cost_network.node[3].core_layer 	data[3] 	137825
scalar geant_cost_network.node[3].content_store 	p_hit[3] 	0.027030652152428
scalar geant_cost_network.node[3].content_store 	hits[3] 	3829
scalar geant_cost_network.node[3].content_store 	misses[3] 	137825
scalar geant_cost_network.node[3].content_store 	decision_yes[3] 	137793
scalar geant_cost_network.node[3].content_store 	decision_no[3] 	0
scalar geant_cost_network.node[3].content_store 	decision_ratio[3] 	1
scalar geant_cost_network.node[4].core_layer 	interests[4] 	215461
scalar geant_cost_network.node[4].core_layer 	data[4] 	214312
scalar geant_cost_network.node[4].content_store 	p_hit[4] 	0.0053234692125257
scalar geant_cost_network.node[4].content_store 	hits[4] 	1147
scalar geant_cost_network.node[4].content_store 	misses[4] 	214314
scalar geant_cost_network.node[4].content_store 	decision_yes[4] 	214290
scalar geant_cost_network.node[4].content_store 	decision_no[4] 	0
scalar geant_cost_network.node[4].content_store 	decision_ratio[4] 	1
scalar geant_cost_network.node[5].core_layer 	interests[5] 	184210
scalar geant_cost_network.node[5].core_layer 	data[5] 	142269
scalar geant_cost_network.node[5].content_store 	p_hit[5] 	0.22547092991694
scalar geant_cost_network.node[5].content_store 	hits[5] 	41534
scalar geant_cost_network.node[5].content_store 	misses[5] 	142676
scalar geant_cost_network.node[5].content_store 	decision_yes[5] 	142269
scalar geant_cost_network.node[5].content_store 	decision_no[5] 	0
scalar geant_cost_network.node[5].content_store 	decision_ratio[5] 	1
scalar geant_cost_network.node[6].core_layer 	interests[6] 	73115
scalar geant_cost_network.node[6].core_layer 	data[6] 	69560
scalar geant_cost_network.node[6].content_store 	p_hit[6] 	0.048622033782398
scalar geant_cost_network.node[6].content_store 	hits[6] 	3555
scalar geant_cost_network.node[6].content_store 	misses[6] 	69560
scalar geant_cost_network.node[6].content_store 	decision_yes[6] 	69560
scalar geant_cost_network.node[6].content_store 	decision_no[6] 	0
scalar geant_cost_network.node[6].content_store 	decision_ratio[6] 	1
scalar geant_cost_network.node[7].core_layer 	interests[7] 	241450
scalar geant_cost_network.node[7].core_layer 	data[7] 	239737
scalar geant_cost_network.node[7].content_store 	p_hit[7] 	0.0070904949264858
scalar geant_cost_network.node[7].content_store 	hits[7] 	1712
scalar geant_cost_network.node[7].content_store 	misses[7] 	239738
scalar geant_cost_network.node[7].content_store 	decision_yes[7] 	239726
scalar geant_cost_network.node[7].content_store 	decision_no[7] 	0
scalar geant_cost_network.node[7].content_store 	decision_ratio[7] 	1
scalar geant_cost_network.node[8].core_layer 	interests[8] 	246952
scalar geant_cost_network.node[8].core_layer 	data[8] 	244796
scalar geant_cost_network.node[8].content_store 	p_hit[8] 	0.0087304415432959
scalar geant_cost_network.node[8].content_store 	hits[8] 	2156
scalar geant_cost_network.node[8].content_store 	misses[8] 	244796
scalar geant_cost_network.node[8].content_store 	decision_yes[8] 	244788
scalar geant_cost_network.node[8].content_store 	decision_no[8] 	0
scalar geant_cost_network.node[8].content_store 	decision_ratio[8] 	1
scalar geant_cost_network.node[9].core_layer 	interests[9] 	357465
scalar geant_cost_network.node[9].core_layer 	data[9] 	316393
scalar geant_cost_network.node[9].content_store 	p_hit[9] 	0.11264039836068
scalar geant_cost_network.node[9].content_store 	hits[9] 	40265
scalar geant_cost_network.node[9].content_store 	misses[9] 	317200
scalar geant_cost_network.node[9].content_store 	decision_yes[9] 	316358
scalar geant_cost_network.node[9].content_store 	decision_no[9] 	0
scalar geant_cost_network.node[9].content_store 	decision_ratio[9] 	1
scalar geant_cost_network.node[10].core_layer 	interests[10] 	190286
scalar geant_cost_network.node[10].core_layer 	data[10] 	138806
scalar geant_cost_network.node[10].content_store 	p_hit[10] 	0.26902662308315
scalar geant_cost_network.node[10].content_store 	hits[10] 	51192
scalar geant_cost_network.node[10].content_store 	misses[10] 	139094
scalar geant_cost_network.node[10].content_store 	decision_yes[10] 	138806
scalar geant_cost_network.node[10].content_store 	decision_no[10] 	0
scalar geant_cost_network.node[10].content_store 	decision_ratio[10] 	1
scalar geant_cost_network.node[11].core_layer 	interests[11] 	0
scalar geant_cost_network.node[11].core_layer 	data[11] 	0
scalar geant_cost_network.node[11].content_store 	p_hit[11] 	-nan
scalar geant_cost_network.node[11].content_store 	hits[11] 	0
scalar geant_cost_network.node[11].content_store 	misses[11] 	0
scalar geant_cost_network.node[11].content_store 	decision_yes[11] 	0
scalar geant_cost_network.node[11].content_store 	decision_no[11] 	0
scalar geant_cost_network.node[11].content_store 	decision_ratio[11] 	0
scalar geant_cost_network.node[12].core_layer 	interests[12] 	313700
scalar geant_cost_network.node[12].core_layer 	data[12] 	259077
scalar geant_cost_network.node[12].content_store 	p_hit[12] 	0.16956646477526
scalar geant_cost_network.node[12].content_store 	hits[12] 	53193
scalar geant_cost_network.node[12].content_store 	misses[12] 	260507
scalar geant_cost_network.node[12].content_store 	decision_yes[12] 	259073
scalar geant_cost_network.node[12].content_store 	decision_no[12] 	0
scalar geant_cost_network.node[12].content_store 	decision_ratio[12] 	1
scalar geant_cost_network.node[13].core_layer 	interests[13] 	51425
scalar geant_cost_network.node[13].core_layer 	data[13] 	949
scalar geant_cost_network.node[13].content_store 	p_hit[13] 	0.98154594069033
scalar geant_cost_network.node[13].content_store 	hits[13] 	50476
scalar geant_cost_network.node[13].content_store 	misses[13] 	949
scalar geant_cost_network.node[13].content_store 	decision_yes[13] 	949
scalar geant_cost_network.node[13].content_store 	decision_no[13] 	0
scalar geant_cost_network.node[13].content_store 	decision_ratio[13] 	1
scalar geant_cost_network.node[14].core_layer 	interests[14] 	87792
scalar geant_cost_network.node[14].core_layer 	data[14] 	64928
scalar geant_cost_network.node[14].content_store 	p_hit[14] 	0.25848596683069
scalar geant_cost_network.node[14].content_store 	hits[14] 	22693
scalar geant_cost_network.node[14].content_store 	misses[14] 	65099
scalar geant_cost_network.node[14].content_store 	decision_yes[14] 	64926
scalar geant_cost_network.node[14].content_store 	decision_no[14] 	0
scalar geant_cost_network.node[14].content_store 	decision_ratio[14] 	1
scalar geant_cost_network.node[15].core_layer 	interests[15] 	73629
scalar geant_cost_network.node[15].core_layer 	data[15] 	12
scalar geant_cost_network.node[15].content_store 	p_hit[15] 	0.99983702073911
scalar geant_cost_network.node[15].content_store 	hits[15] 	73617
scalar geant_cost_network.node[15].content_store 	misses[15] 	12
scalar geant_cost_network.node[15].content_store 	decision_yes[15] 	12
scalar geant_cost_network.node[15].content_store 	decision_no[15] 	0
scalar geant_cost_network.node[15].content_store 	decision_ratio[15] 	1
scalar geant_cost_network.node[16].core_layer 	interests[16] 	0
scalar geant_cost_network.node[16].core_layer 	data[16] 	0
scalar geant_cost_network.node[16].content_store 	p_hit[16] 	-nan
scalar geant_cost_network.node[16].content_store 	hits[16] 	0
scalar geant_cost_network.node[16].content_store 	misses[16] 	0
scalar geant_cost_network.node[16].content_store 	decision_yes[16] 	0
scalar geant_cost_network.node[16].content_store 	decision_no[16] 	0
scalar geant_cost_network.node[16].content_store 	decision_ratio[16] 	0
scalar geant_cost_network.node[17].core_layer 	interests[17] 	0
scalar geant_cost_network.node[17].core_layer 	data[17] 	0
scalar geant_cost_network.node[17].content_store 	p_hit[17] 	-nan
scalar geant_cost_network.node[17].content_store 	hits[17] 	0
scalar geant_cost_network.node[17].content_store 	misses[17] 	0
scalar geant_cost_network.node[17].content_store 	decision_yes[17] 	0
scalar geant_cost_network.node[17].content_store 	decision_no[17] 	0
scalar geant_cost_network.node[17].content_store 	decision_ratio[17] 	0
scalar geant_cost_network.node[18].core_layer 	interests[18] 	110288
scalar geant_cost_network.node[18].core_layer 	data[18] 	104473
scalar geant_cost_network.node[18].content_store 	p_hit[18] 	0.052707456840273
scalar geant_cost_network.node[18].content_store 	hits[18] 	5813
scalar geant_cost_network.node[18].content_store 	misses[18] 	104475
scalar geant_cost_network.node[18].content_store 	decision_yes[18] 	104473
scalar geant_cost_network.node[18].content_store 	decision_no[18] 	0
scalar geant_cost_network.node[18].content_store 	decision_ratio[18] 	1
scalar geant_cost_network.node[19].core_layer 	interests[19] 	0
scalar geant_cost_network.node[19].core_layer 	data[19] 	0
scalar geant_cost_network.node[19].content_store 	p_hit[19] 	-nan
scalar geant_cost_network.node[19].content_store 	hits[19] 	0
scalar geant_cost_network.node[19].content_store 	misses[19] 	0
scalar geant_cost_network.node[19].content_store 	decision_yes[19] 	0
scalar geant_cost_network.node[19].content_store 	decision_no[19] 	0
scalar geant_cost_network.node[19].content_store 	decision_ratio[19] 	0
scalar geant_cost_network.node[20].core_layer 	interests[20] 	180241
scalar geant_cost_network.node[20].core_layer 	data[20] 	140650
scalar geant_cost_network.node[20].content_store 	p_hit[20] 	0.21798591885309
scalar geant_cost_network.node[20].content_store 	hits[20] 	39290
scalar geant_cost_network.node[20].content_store 	misses[20] 	140951
scalar geant_cost_network.node[20].content_store 	decision_yes[20] 	140650
scalar geant_cost_network.node[20].content_store 	decision_no[20] 	0
scalar geant_cost_network.node[20].content_store 	decision_ratio[20] 	1
scalar geant_cost_network.node[21].core_layer 	interests[21] 	163068
scalar geant_cost_network.node[21].core_layer 	data[21] 	161670
scalar geant_cost_network.node[21].content_store 	p_hit[21] 	0.0085731106041651
scalar geant_cost_network.node[21].content_store 	hits[21] 	1398
scalar geant_cost_network.node[21].content_store 	misses[21] 	161670
scalar geant_cost_network.node[21].content_store 	decision_yes[21] 	161670
scalar geant_cost_network.node[21].content_store 	decision_no[21] 	0
scalar geant_cost_network.node[21].content_store 	decision_ratio[21] 	1
scalar geant_cost_network.node[22].core_layer 	interests[22] 	166788
scalar geant_cost_network.node[22].core_layer 	repo_load[22] 	166788
scalar geant_cost_network.node[22].core_layer 	data[22] 	0
scalar geant_cost_network.node[22].content_store 	p_hit[22] 	0
scalar geant_cost_network.node[22].content_store 	hits[22] 	0
scalar geant_cost_network.node[22].content_store 	misses[22] 	166788
scalar geant_cost_network.node[22].content_store 	decision_yes[22] 	0
scalar geant_cost_network.node[22].content_store 	decision_no[22] 	166788
scalar geant_cost_network.node[22].content_store 	decision_ratio[22] 	0
scalar geant_cost_network.node[23].core_layer 	interests[23] 	175956
scalar geant_cost_network.node[23].core_layer 	repo_load[23] 	175956
scalar geant_cost_network.node[23].core_layer 	data[23] 	0
scalar geant_cost_network.node[23].content_store 	p_hit[23] 	0
scalar geant_cost_network.node[23].content_store 	hits[23] 	0
scalar geant_cost_network.node[23].content_store 	misses[23] 	175956
scalar geant_cost_network.node[23].content_store 	decision_yes[23] 	0
scalar geant_cost_network.node[23].content_store 	decision_no[23] 	175956
scalar geant_cost_network.node[23].content_store 	decision_ratio[23] 	0
scalar geant_cost_network.node[24].core_layer 	interests[24] 	161670
scalar geant_cost_network.node[24].core_layer 	repo_load[24] 	161670
scalar geant_cost_network.node[24].core_layer 	data[24] 	0
scalar geant_cost_network.node[24].content_store 	p_hit[24] 	0
scalar geant_cost_network.node[24].content_store 	hits[24] 	0
scalar geant_cost_network.node[24].content_store 	misses[24] 	161670
scalar geant_cost_network.node[24].content_store 	decision_yes[24] 	0
scalar geant_cost_network.node[24].content_store 	decision_no[24] 	161670
scalar geant_cost_network.node[24].content_store 	decision_ratio[24] 	0
scalar geant_cost_network.client[5] 	hdistance[5] 	2.8192627362207
scalar geant_cost_network.client[5] 	downloads[5] 	180234
scalar geant_cost_network.client[5] 	avg_time[5] 	0.009940180011
scalar geant_cost_network.client[5] 	interests_sent[5] 	180638
scalar geant_cost_network.client[9] 	hdistance[9] 	2.8374141793337
scalar geant_cost_network.client[9] 	downloads[9] 	179007
scalar geant_cost_network.client[9] 	avg_time[9] 	0.006004770452
scalar geant_cost_network.client[9] 	interests_sent[9] 	179337
scalar geant_cost_network.client[10] 	hdistance[10] 	3.5404578706618
scalar geant_cost_network.client[10] 	downloads[10] 	179483
scalar geant_cost_network.client[10] 	avg_time[10] 	0.007468282659
scalar geant_cost_network.client[10] 	interests_sent[10] 	179771
scalar geant_cost_network.client[12] 	hdistance[12] 	2.8650263620387
scalar geant_cost_network.client[12] 	downloads[12] 	179235
scalar geant_cost_network.client[12] 	avg_time[12] 	0.007131531583
scalar geant_cost_network.client[12] 	interests_sent[12] 	179787
scalar geant_cost_network.client[20] 	hdistance[20] 	3.2066986922872
scalar geant_cost_network.client[20] 	downloads[20] 	179856
scalar geant_cost_network.client[20] 	avg_time[20] 	0.007611343664
scalar geant_cost_network.client[20] 	interests_sent[20] 	180157
