version 2
run General-9-20150804-04:14:14-15193
attr C 1e4
attr D fix0.1
attr F spr
attr R lru_repr
attr a 1
attr brates 0.3_0.7_1.5_2.5_3.5
attr configname General
attr ctlg 1e6
attr datetime 20150804-04:14:14
attr experiment General
attr inifile omnetpp.ini
attr iterationvars "$net=abilene_nodelay, $rep=0, $lambda=100, $a=1, $ctlg=1e6, $brates=0.3_0.7_1.5_2.5_3.5, $F=spr, $ttl=1000, $D=fix0.1, $R=lru_repr, $proactiveprob=0.1, $C=1e4, $window=60, $variance=0.05, $mytime=1800001"
attr iterationvars2 "$net=abilene_nodelay, $rep=0, $lambda=100, $a=1, $ctlg=1e6, $brates=0.3_0.7_1.5_2.5_3.5, $F=spr, $ttl=1000, $D=fix0.1, $R=lru_repr, $proactiveprob=0.1, $C=1e4, $window=60, $variance=0.05, $mytime=1800001, $repetition=0"
attr lambda 100
attr measurement "$net=abilene_nodelay, $rep=0, $lambda=100, $a=1, $ctlg=1e6, $brates=0.3_0.7_1.5_2.5_3.5, $F=spr, $ttl=1000, $D=fix0.1, $R=lru_repr, $proactiveprob=0.1, $C=1e4, $window=60, $variance=0.05, $mytime=1800001"
attr mytime 1800001
attr net abilene_nodelay
attr network networks.${net=abilene_nodelay}_network
attr proactiveprob 0.1
attr processid 15193
attr rep 0
attr repetition 0
attr replication #0
attr resultdir results
attr runnumber 9
attr seedset 0
attr ttl 1000
attr variance 0.05
attr window 60

scalar . 	C 	1e4
scalar . 	a 	1
scalar . 	ctlg 	1e6
scalar . 	lambda 	100
scalar . 	mytime 	1800001
scalar . 	proactiveprob 	0.1
scalar . 	rep 	0
scalar . 	ttl 	1000
scalar . 	variance 	0.05
scalar . 	window 	60
scalar abilene_nodelay_network.content_distribution 	repo-0 	5
scalar abilene_nodelay_network.content_distribution 	repo-1 	8
scalar abilene_nodelay_network.content_distribution 	repo-2 	9
scalar abilene_nodelay_network.content_distribution 	repo-3 	0
scalar abilene_nodelay_network.content_distribution 	repo-4 	1
scalar abilene_nodelay_network.content_distribution 	repo-5 	7
scalar abilene_nodelay_network.content_distribution 	repo-6 	6
scalar abilene_nodelay_network.content_distribution 	repo-7 	2
scalar abilene_nodelay_network.content_distribution 	repo-8 	4
scalar abilene_nodelay_network.content_distribution 	repo-9 	10
scalar abilene_nodelay_network.content_distribution 	repo-10 	3
scalar abilene_nodelay_network.content_distribution 	client-0 	10
scalar abilene_nodelay_network.content_distribution 	client-1 	9
scalar abilene_nodelay_network.content_distribution 	client-2 	8
scalar abilene_nodelay_network.content_distribution 	client-3 	7
scalar abilene_nodelay_network.content_distribution 	client-4 	3
scalar abilene_nodelay_network.content_distribution 	client-5 	6
scalar abilene_nodelay_network.content_distribution 	client-6 	5
scalar abilene_nodelay_network.content_distribution 	client-7 	1
scalar abilene_nodelay_network.content_distribution 	client-8 	4
scalar abilene_nodelay_network.content_distribution 	client-9 	0
scalar abilene_nodelay_network.content_distribution 	client-10 	2
scalar abilene_nodelay_network.content_distribution 	repo-0_card 	90891
scalar abilene_nodelay_network.content_distribution 	repo-0_price 	0
scalar abilene_nodelay_network.content_distribution 	repo-1_card 	90362
scalar abilene_nodelay_network.content_distribution 	repo-1_price 	0
scalar abilene_nodelay_network.content_distribution 	repo-2_card 	90927
scalar abilene_nodelay_network.content_distribution 	repo-2_price 	0
scalar abilene_nodelay_network.content_distribution 	repo-3_card 	91098
scalar abilene_nodelay_network.content_distribution 	repo-3_price 	0
scalar abilene_nodelay_network.content_distribution 	repo-4_card 	91231
scalar abilene_nodelay_network.content_distribution 	repo-4_price 	0
scalar abilene_nodelay_network.content_distribution 	repo-5_card 	90932
scalar abilene_nodelay_network.content_distribution 	repo-5_price 	0
scalar abilene_nodelay_network.content_distribution 	repo-6_card 	90752
scalar abilene_nodelay_network.content_distribution 	repo-6_price 	0
scalar abilene_nodelay_network.content_distribution 	repo-7_card 	90980
scalar abilene_nodelay_network.content_distribution 	repo-7_price 	0
scalar abilene_nodelay_network.content_distribution 	repo-8_card 	90629
scalar abilene_nodelay_network.content_distribution 	repo-8_price 	0
scalar abilene_nodelay_network.content_distribution 	repo-9_card 	91219
scalar abilene_nodelay_network.content_distribution 	repo-9_price 	0
scalar abilene_nodelay_network.content_distribution 	repo-10_card 	90979
scalar abilene_nodelay_network.content_distribution 	repo-10_price 	0
scalar abilene_nodelay_network.statistics 	stabilization_time 	36060
scalar abilene_nodelay_network.statistics 	p_hit 	0.47445229749789
scalar abilene_nodelay_network.statistics 	interests 	281166474.90909
scalar abilene_nodelay_network.statistics 	data 	96193699
scalar abilene_nodelay_network.statistics 	hdistance 	0.75128734576483
scalar abilene_nodelay_network.statistics 	avg_time 	0
scalar abilene_nodelay_network.statistics 	downloads 	1979990700
scalar abilene_nodelay_network.statistics 	total_cost 	0
scalar abilene_nodelay_network.statistics 	total_replicas 	1000000
scalar abilene_nodelay_network.statistics 	"representations_downloaded 0.419978:0.051901:0.0346314:0.0304364:0.463053:" 	0
scalar abilene_nodelay_network.statistics 	"slots_per_representation 100:233:500:833:1167:" 	0
scalar abilene_nodelay_network.statistics 	inner_hit 	0.71348367696879
scalar abilene_nodelay_network.statistics 	execution_time 	54391
scalar abilene_nodelay_network.node[0].core_layer 	interests[0] 	214031341
scalar abilene_nodelay_network.node[0].core_layer 	repo_load[0] 	44179245
scalar abilene_nodelay_network.node[0].core_layer 	data[0] 	46791641
scalar abilene_nodelay_network.node[0].core_layer 	slots_sent[face$o[1]->client[0]] 	121486442733
scalar abilene_nodelay_network.node[0].core_layer 	slots_sent[face$o[2]->node[1]] 	3259999119
scalar abilene_nodelay_network.node[0].core_layer 	slots_sent[face$o[3]->node[10]] 	1119475899
scalar abilene_nodelay_network.node[0].content_store 	p_hit[0] 	0.57496464968651
scalar abilene_nodelay_network.node[0].content_store 	hits[0] 	123060455
scalar abilene_nodelay_network.node[0].content_store 	misses[0] 	90970886
scalar abilene_nodelay_network.node[0].content_store 	decision_yes[0] 	4680492
scalar abilene_nodelay_network.node[0].content_store 	decision_no[0] 	86290394
scalar abilene_nodelay_network.node[0].content_store 	decision_ratio[0] 	0.051450438770048
scalar abilene_nodelay_network.node[0].content_store 	"representation_breakdown[0] 64607:4852:1629:971:2104:" 	0
scalar abilene_nodelay_network.node[0].proactive_component 	hdistance[0].proactive_component 	2.8263367724635
scalar abilene_nodelay_network.node[0].proactive_component 	downloads[0].proactive_component 	3385449
scalar abilene_nodelay_network.node[0].proactive_component 	avg_time[0].proactive_component 	0
scalar abilene_nodelay_network.node[1].core_layer 	interests[1] 	313735981
scalar abilene_nodelay_network.node[1].core_layer 	repo_load[1] 	55682311
scalar abilene_nodelay_network.node[1].core_layer 	data[1] 	121910739
scalar abilene_nodelay_network.node[1].core_layer 	slots_sent[face$o[1]->client[1]] 	109439859482
scalar abilene_nodelay_network.node[1].core_layer 	slots_sent[face$o[2]->node[0]] 	6260515803
scalar abilene_nodelay_network.node[1].core_layer 	slots_sent[face$o[3]->node[10]] 	4635867147
scalar abilene_nodelay_network.node[1].core_layer 	slots_sent[face$o[4]->node[2]] 	9360147574
scalar abilene_nodelay_network.node[1].content_store 	p_hit[1] 	0.43394108181682
scalar abilene_nodelay_network.node[1].content_store 	hits[1] 	136142931
scalar abilene_nodelay_network.node[1].content_store 	misses[1] 	177593050
scalar abilene_nodelay_network.node[1].content_store 	decision_yes[1] 	12187335
scalar abilene_nodelay_network.node[1].content_store 	decision_no[1] 	165405715
scalar abilene_nodelay_network.node[1].content_store 	decision_ratio[1] 	0.068625067253476
scalar abilene_nodelay_network.node[1].content_store 	"representation_breakdown[1] 66899:5596:1689:1043:1682:" 	0
scalar abilene_nodelay_network.node[1].proactive_component 	hdistance[1].proactive_component 	2.5420087313944
scalar abilene_nodelay_network.node[1].proactive_component 	downloads[1].proactive_component 	5875350
scalar abilene_nodelay_network.node[1].proactive_component 	avg_time[1].proactive_component 	0
scalar abilene_nodelay_network.node[2].core_layer 	interests[2] 	389774361
scalar abilene_nodelay_network.node[2].core_layer 	repo_load[2] 	61449736
scalar abilene_nodelay_network.node[2].core_layer 	data[2] 	180204256
scalar abilene_nodelay_network.node[2].core_layer 	slots_sent[face$o[1]->client[2]] 	106087297564
scalar abilene_nodelay_network.node[2].core_layer 	slots_sent[face$o[2]->node[1]] 	12328769164
scalar abilene_nodelay_network.node[2].core_layer 	slots_sent[face$o[3]->node[3]] 	13807694974
scalar abilene_nodelay_network.node[2].core_layer 	slots_sent[face$o[4]->node[8]] 	6162104653
scalar abilene_nodelay_network.node[2].content_store 	p_hit[2] 	0.38001568040541
scalar abilene_nodelay_network.node[2].content_store 	hits[2] 	148120369
scalar abilene_nodelay_network.node[2].content_store 	misses[2] 	241653992
scalar abilene_nodelay_network.node[2].content_store 	decision_yes[2] 	18019015
scalar abilene_nodelay_network.node[2].content_store 	decision_no[2] 	223634977
scalar abilene_nodelay_network.node[2].content_store 	decision_ratio[2] 	0.074565352100618
scalar abilene_nodelay_network.node[2].content_store 	"representation_breakdown[2] 68206:5747:1644:1039:1562:" 	0
scalar abilene_nodelay_network.node[2].proactive_component 	hdistance[2].proactive_component 	2.4599312621971
scalar abilene_nodelay_network.node[2].proactive_component 	downloads[2].proactive_component 	7346176
scalar abilene_nodelay_network.node[2].proactive_component 	avg_time[2].proactive_component 	0
scalar abilene_nodelay_network.node[3].core_layer 	interests[3] 	371528813
scalar abilene_nodelay_network.node[3].core_layer 	repo_load[3] 	53733731
scalar abilene_nodelay_network.node[3].core_layer 	data[3] 	165878964
scalar abilene_nodelay_network.node[3].core_layer 	slots_sent[face$o[1]->client[3]] 	113128423631
scalar abilene_nodelay_network.node[3].core_layer 	slots_sent[face$o[2]->node[2]] 	13315711730
scalar abilene_nodelay_network.node[3].core_layer 	slots_sent[face$o[3]->node[4]] 	9434275050
scalar abilene_nodelay_network.node[3].core_layer 	slots_sent[face$o[4]->node[7]] 	6782246345
scalar abilene_nodelay_network.node[3].content_store 	p_hit[3] 	0.40889458013583
scalar abilene_nodelay_network.node[3].content_store 	hits[3] 	151916118
scalar abilene_nodelay_network.node[3].content_store 	misses[3] 	219612695
scalar abilene_nodelay_network.node[3].content_store 	decision_yes[3] 	16587755
scalar abilene_nodelay_network.node[3].content_store 	decision_no[3] 	203024940
scalar abilene_nodelay_network.node[3].content_store 	decision_ratio[3] 	0.075531858483864
scalar abilene_nodelay_network.node[3].content_store 	"representation_breakdown[3] 67607:5767:1730:1013:1591:" 	0
scalar abilene_nodelay_network.node[3].proactive_component 	hdistance[3].proactive_component 	2.4654627600626
scalar abilene_nodelay_network.node[3].proactive_component 	downloads[3].proactive_component 	7090694
scalar abilene_nodelay_network.node[3].proactive_component 	avg_time[3].proactive_component 	0
scalar abilene_nodelay_network.node[4].core_layer 	interests[4] 	259587748
scalar abilene_nodelay_network.node[4].core_layer 	repo_load[4] 	47111128
scalar abilene_nodelay_network.node[4].core_layer 	data[4] 	80369885
scalar abilene_nodelay_network.node[4].core_layer 	slots_sent[face$o[1]->client[4]] 	118408708738
scalar abilene_nodelay_network.node[4].core_layer 	slots_sent[face$o[2]->node[3]] 	6477098059
scalar abilene_nodelay_network.node[4].core_layer 	slots_sent[face$o[3]->node[5]] 	5325420526
scalar abilene_nodelay_network.node[4].content_store 	p_hit[4] 	0.50890974638757
scalar abilene_nodelay_network.node[4].content_store 	hits[4] 	132106735
scalar abilene_nodelay_network.node[4].content_store 	misses[4] 	127481013
scalar abilene_nodelay_network.node[4].content_store 	decision_yes[4] 	8034789
scalar abilene_nodelay_network.node[4].content_store 	decision_no[4] 	119446224
scalar abilene_nodelay_network.node[4].content_store 	decision_ratio[4] 	0.063027338824175
scalar abilene_nodelay_network.node[4].content_store 	"representation_breakdown[4] 65093:5371:1780:1072:1822:" 	0
scalar abilene_nodelay_network.node[4].proactive_component 	hdistance[4].proactive_component 	2.6352572948585
scalar abilene_nodelay_network.node[4].proactive_component 	downloads[4].proactive_component 	4602968
scalar abilene_nodelay_network.node[4].proactive_component 	avg_time[4].proactive_component 	0
scalar abilene_nodelay_network.node[5].core_layer 	interests[5] 	223872772
scalar abilene_nodelay_network.node[5].core_layer 	repo_load[5] 	55920119
scalar abilene_nodelay_network.node[5].core_layer 	data[5] 	54520016
scalar abilene_nodelay_network.node[5].core_layer 	slots_sent[face$o[1]->client[5]] 	108104453685
scalar abilene_nodelay_network.node[5].core_layer 	slots_sent[face$o[2]->node[4]] 	3380644623
scalar abilene_nodelay_network.node[5].core_layer 	slots_sent[face$o[3]->node[6]] 	2638325828
scalar abilene_nodelay_network.node[5].content_store 	p_hit[5] 	0.50668348806616
scalar abilene_nodelay_network.node[5].content_store 	hits[5] 	113432637
scalar abilene_nodelay_network.node[5].content_store 	misses[5] 	110440135
scalar abilene_nodelay_network.node[5].content_store 	decision_yes[5] 	5447858
scalar abilene_nodelay_network.node[5].content_store 	decision_no[5] 	104992277
scalar abilene_nodelay_network.node[5].content_store 	decision_ratio[5] 	0.049328606851123
scalar abilene_nodelay_network.node[5].content_store 	"representation_breakdown[5] 64546:5037:1695:946:2061:" 	0
scalar abilene_nodelay_network.node[5].proactive_component 	hdistance[5].proactive_component 	2.6872343047589
scalar abilene_nodelay_network.node[5].proactive_component 	downloads[5].proactive_component 	3700198
scalar abilene_nodelay_network.node[5].proactive_component 	avg_time[5].proactive_component 	0
scalar abilene_nodelay_network.node[6].core_layer 	interests[6] 	241719875
scalar abilene_nodelay_network.node[6].core_layer 	repo_load[6] 	45363293
scalar abilene_nodelay_network.node[6].core_layer 	data[6] 	67587699
scalar abilene_nodelay_network.node[6].core_layer 	slots_sent[face$o[1]->client[6]] 	119338500120
scalar abilene_nodelay_network.node[6].core_layer 	slots_sent[face$o[2]->node[5]] 	3554461380
scalar abilene_nodelay_network.node[6].core_layer 	slots_sent[face$o[3]->node[7]] 	5297240288
scalar abilene_nodelay_network.node[6].content_store 	p_hit[6] 	0.53271946711043
scalar abilene_nodelay_network.node[6].content_store 	hits[6] 	128768883
scalar abilene_nodelay_network.node[6].content_store 	misses[6] 	112950992
scalar abilene_nodelay_network.node[6].content_store 	decision_yes[6] 	6756524
scalar abilene_nodelay_network.node[6].content_store 	decision_no[6] 	106194468
scalar abilene_nodelay_network.node[6].content_store 	decision_ratio[6] 	0.059818190884061
scalar abilene_nodelay_network.node[6].content_store 	"representation_breakdown[6] 65185:5137:1745:989:1935:" 	0
scalar abilene_nodelay_network.node[6].proactive_component 	hdistance[6].proactive_component 	2.5820373087853
scalar abilene_nodelay_network.node[6].proactive_component 	downloads[6].proactive_component 	4186199
scalar abilene_nodelay_network.node[6].proactive_component 	avg_time[6].proactive_component 	0
scalar abilene_nodelay_network.node[7].core_layer 	interests[7] 	301947579
scalar abilene_nodelay_network.node[7].core_layer 	repo_load[7] 	51662238
scalar abilene_nodelay_network.node[7].core_layer 	data[7] 	108907585
scalar abilene_nodelay_network.node[7].core_layer 	slots_sent[face$o[1]->client[7]] 	117479793727
scalar abilene_nodelay_network.node[7].core_layer 	slots_sent[face$o[2]->node[3]] 	5238745098
scalar abilene_nodelay_network.node[7].core_layer 	slots_sent[face$o[3]->node[6]] 	8200306232
scalar abilene_nodelay_network.node[7].core_layer 	slots_sent[face$o[4]->node[8]] 	5058842732
scalar abilene_nodelay_network.node[7].content_store 	p_hit[7] 	0.46821953820004
scalar abilene_nodelay_network.node[7].content_store 	hits[7] 	141377756
scalar abilene_nodelay_network.node[7].content_store 	misses[7] 	160569823
scalar abilene_nodelay_network.node[7].content_store 	decision_yes[7] 	10886809
scalar abilene_nodelay_network.node[7].content_store 	decision_no[7] 	149683014
scalar abilene_nodelay_network.node[7].content_store 	decision_ratio[7] 	0.067801089872286
scalar abilene_nodelay_network.node[7].content_store 	"representation_breakdown[7] 66304:5525:1807:1048:1693:" 	0
scalar abilene_nodelay_network.node[7].proactive_component 	hdistance[7].proactive_component 	2.4100699812535
scalar abilene_nodelay_network.node[7].proactive_component 	downloads[7].proactive_component 	5623506
scalar abilene_nodelay_network.node[7].proactive_component 	avg_time[7].proactive_component 	0
scalar abilene_nodelay_network.node[8].core_layer 	interests[8] 	294636676
scalar abilene_nodelay_network.node[8].core_layer 	repo_load[8] 	50501898
scalar abilene_nodelay_network.node[8].core_layer 	data[8] 	102872394
scalar abilene_nodelay_network.node[8].core_layer 	slots_sent[face$o[1]->client[8]] 	117827960908
scalar abilene_nodelay_network.node[8].core_layer 	slots_sent[face$o[2]->node[2]] 	4852178197
scalar abilene_nodelay_network.node[8].core_layer 	slots_sent[face$o[3]->node[7]] 	5023891386
scalar abilene_nodelay_network.node[8].core_layer 	slots_sent[face$o[4]->node[9]] 	7214422213
scalar abilene_nodelay_network.node[8].content_store 	p_hit[8] 	0.47944602796157
scalar abilene_nodelay_network.node[8].content_store 	hits[8] 	141262384
scalar abilene_nodelay_network.node[8].content_store 	misses[8] 	153374292
scalar abilene_nodelay_network.node[8].content_store 	decision_yes[8] 	10282495
scalar abilene_nodelay_network.node[8].content_store 	decision_no[8] 	143091797
scalar abilene_nodelay_network.node[8].content_store 	decision_ratio[8] 	0.067041841666659
scalar abilene_nodelay_network.node[8].content_store 	"representation_breakdown[8] 66371:5559:1748:1042:1710:" 	0
scalar abilene_nodelay_network.node[8].proactive_component 	hdistance[8].proactive_component 	2.3480421678955
scalar abilene_nodelay_network.node[8].proactive_component 	downloads[8].proactive_component 	5603979
scalar abilene_nodelay_network.node[8].proactive_component 	avg_time[8].proactive_component 	0
scalar abilene_nodelay_network.node[9].core_layer 	interests[9] 	242938919
scalar abilene_nodelay_network.node[9].core_layer 	repo_load[9] 	47940063
scalar abilene_nodelay_network.node[9].core_layer 	data[9] 	67391240
scalar abilene_nodelay_network.node[9].core_layer 	slots_sent[face$o[1]->client[9]] 	116794206313
scalar abilene_nodelay_network.node[9].core_layer 	slots_sent[face$o[2]->node[10]] 	4101958164
scalar abilene_nodelay_network.node[9].core_layer 	slots_sent[face$o[3]->node[8]] 	4948702248
scalar abilene_nodelay_network.node[9].content_store 	p_hit[9] 	0.52526625427192
scalar abilene_nodelay_network.node[9].content_store 	hits[9] 	127607616
scalar abilene_nodelay_network.node[9].content_store 	misses[9] 	115331303
scalar abilene_nodelay_network.node[9].content_store 	decision_yes[9] 	6744977
scalar abilene_nodelay_network.node[9].content_store 	decision_no[9] 	108586326
scalar abilene_nodelay_network.node[9].content_store 	decision_ratio[9] 	0.058483489083619
scalar abilene_nodelay_network.node[9].content_store 	"representation_breakdown[9] 66744:5277:1712:911:1843:" 	0
scalar abilene_nodelay_network.node[9].proactive_component 	hdistance[9].proactive_component 	2.5239483306605
scalar abilene_nodelay_network.node[9].proactive_component 	downloads[9].proactive_component 	4286875
scalar abilene_nodelay_network.node[9].proactive_component 	avg_time[9].proactive_component 	0
scalar abilene_nodelay_network.node[10].core_layer 	interests[10] 	239057159
scalar abilene_nodelay_network.node[10].core_layer 	repo_load[10] 	53755893
scalar abilene_nodelay_network.node[10].core_layer 	data[10] 	61696270
scalar abilene_nodelay_network.node[10].core_layer 	slots_sent[face$o[1]->client[10]] 	113441837787
scalar abilene_nodelay_network.node[10].core_layer 	slots_sent[face$o[2]->node[0]] 	1402910261
scalar abilene_nodelay_network.node[10].core_layer 	slots_sent[face$o[3]->node[1]] 	3409125194
scalar abilene_nodelay_network.node[10].core_layer 	slots_sent[face$o[4]->node[9]] 	3385132170
scalar abilene_nodelay_network.node[10].content_store 	p_hit[10] 	0.51705205783024
scalar abilene_nodelay_network.node[10].content_store 	hits[10] 	123604996
scalar abilene_nodelay_network.node[10].content_store 	misses[10] 	115452163
scalar abilene_nodelay_network.node[10].content_store 	decision_yes[10] 	6171073
scalar abilene_nodelay_network.node[10].content_store 	decision_no[10] 	109281090
scalar abilene_nodelay_network.node[10].content_store 	decision_ratio[10] 	0.053451341574259
scalar abilene_nodelay_network.node[10].content_store 	"representation_breakdown[10] 66374:5093:1619:948:1925:" 	0
scalar abilene_nodelay_network.node[10].proactive_component 	hdistance[10].proactive_component 	2.458248229054
scalar abilene_nodelay_network.node[10].proactive_component 	downloads[10].proactive_component 	4224719
scalar abilene_nodelay_network.node[10].proactive_component 	avg_time[10].proactive_component 	0
scalar abilene_nodelay_network.client[0] 	hdistance[0].real 	0.79027920305854
scalar abilene_nodelay_network.client[0] 	downloads[0].real 	179996703
scalar abilene_nodelay_network.client[0] 	avg_time[0].real 	0
scalar abilene_nodelay_network.client[1] 	hdistance[1].real 	0.77164199646208
scalar abilene_nodelay_network.client[1] 	downloads[1].real 	180004858
scalar abilene_nodelay_network.client[1] 	avg_time[1].real 	0
scalar abilene_nodelay_network.client[2] 	hdistance[2].real 	0.73019181696219
scalar abilene_nodelay_network.client[2] 	downloads[2].real 	180023339
scalar abilene_nodelay_network.client[2] 	avg_time[2].real 	0
scalar abilene_nodelay_network.client[3] 	hdistance[3].real 	0.70577095617794
scalar abilene_nodelay_network.client[3] 	downloads[3].real 	179995198
scalar abilene_nodelay_network.client[3] 	avg_time[3].real 	0
scalar abilene_nodelay_network.client[4] 	hdistance[4].real 	0.77182726527277
scalar abilene_nodelay_network.client[4] 	downloads[4].real 	180009014
scalar abilene_nodelay_network.client[4] 	avg_time[4].real 	0
scalar abilene_nodelay_network.client[5] 	hdistance[5].real 	0.85342564368872
scalar abilene_nodelay_network.client[5] 	downloads[5].real 	179992085
scalar abilene_nodelay_network.client[5] 	avg_time[5].real 	0
scalar abilene_nodelay_network.client[6] 	hdistance[6].real 	0.76937172531098
scalar abilene_nodelay_network.client[6] 	downloads[6].real 	179994964
scalar abilene_nodelay_network.client[6] 	avg_time[6].real 	0
scalar abilene_nodelay_network.client[7] 	hdistance[7].real 	0.68978110389173
scalar abilene_nodelay_network.client[7] 	downloads[7].real 	180002926
scalar abilene_nodelay_network.client[7] 	avg_time[7].real 	0
scalar abilene_nodelay_network.client[8] 	hdistance[8].real 	0.67208914657638
scalar abilene_nodelay_network.client[8] 	downloads[8].real 	179974787
scalar abilene_nodelay_network.client[8] 	avg_time[8].real 	0
scalar abilene_nodelay_network.client[9] 	hdistance[9].real 	0.73750418222286
scalar abilene_nodelay_network.client[9] 	downloads[9].real 	179991001
scalar abilene_nodelay_network.client[9] 	avg_time[9].real 	0
scalar abilene_nodelay_network.client[10] 	hdistance[10].real 	0.77227776378901
scalar abilene_nodelay_network.client[10] 	downloads[10].real 	180005825
scalar abilene_nodelay_network.client[10] 	avg_time[10].real 	0
