version 2
run General-27-20140516-14:44:07-12303
attr D costprobprodcorr0.01
attr F nrr
attr R lru
attr a 1
attr configname General
attr csize 1e3
attr ctlg 1e5
attr datetime 20140516-14:44:07
attr experiment General
attr inifile omnetpp.ini
attr iterationvars "$net=one_cache_scenario_3_links, $rep=4, $priceratiovalue=10, $weights=0.75_0_0.25, $a=1, $ctlg=1e5, $F=nrr, $ttl=1000, $D=costprobprodcorr0.01, $xi=0, $R=lru, $csize=1e3, $q=0"
attr iterationvars2 "$net=one_cache_scenario_3_links, $rep=4, $priceratiovalue=10, $weights=0.75_0_0.25, $a=1, $ctlg=1e5, $F=nrr, $ttl=1000, $D=costprobprodcorr0.01, $xi=0, $R=lru, $csize=1e3, $q=0, $repetition=0"
attr measurement "$net=one_cache_scenario_3_links, $rep=4, $priceratiovalue=10, $weights=0.75_0_0.25, $a=1, $ctlg=1e5, $F=nrr, $ttl=1000, $D=costprobprodcorr0.01, $xi=0, $R=lru, $csize=1e3, $q=0"
attr net one_cache_scenario_3_links
attr network networks.${net=one_cache_scenario_3_links}_network
attr priceratiovalue 10
attr processid 12303
attr q 0
attr rep 4
attr repetition 0
attr replication #0
attr resultdir results
attr runnumber 27
attr seedset 4
attr ttl 1000
attr weights 0.75_0_0.25
attr xi 0

scalar . 	a 	1
scalar . 	csize 	1e3
scalar . 	ctlg 	1e5
scalar . 	priceratiovalue 	10
scalar . 	q 	0
scalar . 	rep 	4
scalar . 	ttl 	1000
scalar . 	xi 	0
scalar one_cache_scenario_3_links_network.content_distribution 	repo-0 	4
scalar one_cache_scenario_3_links_network.content_distribution 	repo-1 	5
scalar one_cache_scenario_3_links_network.content_distribution 	repo-2 	6
scalar one_cache_scenario_3_links_network.content_distribution 	client-0 	0
scalar one_cache_scenario_3_links_network.content_distribution 	repo-0_card 	74913
scalar one_cache_scenario_3_links_network.content_distribution 	repo-1_card 	0
scalar one_cache_scenario_3_links_network.content_distribution 	repo-2_card 	25087
scalar one_cache_scenario_3_links_network.statistics 	p_hit 	0.31430718283764
scalar one_cache_scenario_3_links_network.statistics 	interests 	4736876.4285714
scalar one_cache_scenario_3_links_network.statistics 	data 	2165361.4285714
scalar one_cache_scenario_3_links_network.statistics 	hdistance 	0.8420566975388
scalar one_cache_scenario_3_links_network.statistics 	avg_time 	0
scalar one_cache_scenario_3_links_network.statistics 	downloads 	18000605
scalar one_cache_scenario_3_links_network.statistics 	total_cost 	19043360
scalar one_cache_scenario_3_links_network.statistics 	total_replicas 	100000
scalar one_cache_scenario_3_links_network.statistics 	interests_sent 	18000605
scalar one_cache_scenario_3_links_network.node[0].core_layer 	interests[0] 	18000605
scalar one_cache_scenario_3_links_network.node[0].core_layer 	data[0] 	7578765
scalar one_cache_scenario_3_links_network.node[0].core_layer 	repo_int[0] 	7578765
scalar one_cache_scenario_3_links_network.node[0].content_store 	p_hit[0] 	0.57897165123061
scalar one_cache_scenario_3_links_network.node[0].content_store 	hits[0] 	10421840
scalar one_cache_scenario_3_links_network.node[0].content_store 	misses[0] 	7578765
scalar one_cache_scenario_3_links_network.node[0].content_store 	decision_yes[0] 	303383
scalar one_cache_scenario_3_links_network.node[0].content_store 	decision_no[0] 	7275382
scalar one_cache_scenario_3_links_network.node[0].content_store 	decision_ratio[0] 	0.040030664626756
scalar one_cache_scenario_3_links_network.node[0].content_store 	correction_factor[0] 	0.04
scalar one_cache_scenario_3_links_network.node[0].content_store 	xi[0] 	0
scalar one_cache_scenario_3_links_network.node[1].core_layer 	interests[1] 	5674429
scalar one_cache_scenario_3_links_network.node[1].core_layer 	data[1] 	5674429
scalar one_cache_scenario_3_links_network.node[1].content_store 	p_hit[1] 	0
scalar one_cache_scenario_3_links_network.node[1].content_store 	hits[1] 	0
scalar one_cache_scenario_3_links_network.node[1].content_store 	misses[1] 	5674429
scalar one_cache_scenario_3_links_network.node[1].content_store 	decision_yes[1] 	0
scalar one_cache_scenario_3_links_network.node[1].content_store 	decision_no[1] 	5674429
scalar one_cache_scenario_3_links_network.node[1].content_store 	decision_ratio[1] 	0
scalar one_cache_scenario_3_links_network.node[2].core_layer 	interests[2] 	0
scalar one_cache_scenario_3_links_network.node[2].core_layer 	data[2] 	0
scalar one_cache_scenario_3_links_network.node[2].content_store 	p_hit[2] 	-nan
scalar one_cache_scenario_3_links_network.node[2].content_store 	hits[2] 	0
scalar one_cache_scenario_3_links_network.node[2].content_store 	misses[2] 	0
scalar one_cache_scenario_3_links_network.node[2].content_store 	decision_yes[2] 	0
scalar one_cache_scenario_3_links_network.node[2].content_store 	decision_no[2] 	0
scalar one_cache_scenario_3_links_network.node[2].content_store 	decision_ratio[2] 	0
scalar one_cache_scenario_3_links_network.node[3].core_layer 	interests[3] 	1904336
scalar one_cache_scenario_3_links_network.node[3].core_layer 	data[3] 	1904336
scalar one_cache_scenario_3_links_network.node[3].content_store 	p_hit[3] 	0
scalar one_cache_scenario_3_links_network.node[3].content_store 	hits[3] 	0
scalar one_cache_scenario_3_links_network.node[3].content_store 	misses[3] 	1904336
scalar one_cache_scenario_3_links_network.node[3].content_store 	decision_yes[3] 	0
scalar one_cache_scenario_3_links_network.node[3].content_store 	decision_no[3] 	1904336
scalar one_cache_scenario_3_links_network.node[3].content_store 	decision_ratio[3] 	0
scalar one_cache_scenario_3_links_network.node[4].core_layer 	interests[4] 	5674429
scalar one_cache_scenario_3_links_network.node[4].core_layer 	repo_load[4] 	5674429
scalar one_cache_scenario_3_links_network.node[4].core_layer 	data[4] 	0
scalar one_cache_scenario_3_links_network.node[4].content_store 	p_hit[4] 	0
scalar one_cache_scenario_3_links_network.node[4].content_store 	hits[4] 	0
scalar one_cache_scenario_3_links_network.node[4].content_store 	misses[4] 	5674429
scalar one_cache_scenario_3_links_network.node[4].content_store 	decision_yes[4] 	0
scalar one_cache_scenario_3_links_network.node[4].content_store 	decision_no[4] 	5674429
scalar one_cache_scenario_3_links_network.node[4].content_store 	decision_ratio[4] 	0
scalar one_cache_scenario_3_links_network.node[5].core_layer 	interests[5] 	0
scalar one_cache_scenario_3_links_network.node[5].core_layer 	data[5] 	0
scalar one_cache_scenario_3_links_network.node[5].content_store 	p_hit[5] 	-nan
scalar one_cache_scenario_3_links_network.node[5].content_store 	hits[5] 	0
scalar one_cache_scenario_3_links_network.node[5].content_store 	misses[5] 	0
scalar one_cache_scenario_3_links_network.node[5].content_store 	decision_yes[5] 	0
scalar one_cache_scenario_3_links_network.node[5].content_store 	decision_no[5] 	0
scalar one_cache_scenario_3_links_network.node[5].content_store 	decision_ratio[5] 	0
scalar one_cache_scenario_3_links_network.node[6].core_layer 	interests[6] 	1904336
scalar one_cache_scenario_3_links_network.node[6].core_layer 	repo_load[6] 	1904336
scalar one_cache_scenario_3_links_network.node[6].core_layer 	data[6] 	0
scalar one_cache_scenario_3_links_network.node[6].content_store 	p_hit[6] 	0
scalar one_cache_scenario_3_links_network.node[6].content_store 	hits[6] 	0
scalar one_cache_scenario_3_links_network.node[6].content_store 	misses[6] 	1904336
scalar one_cache_scenario_3_links_network.node[6].content_store 	decision_yes[6] 	0
scalar one_cache_scenario_3_links_network.node[6].content_store 	decision_no[6] 	1904336
scalar one_cache_scenario_3_links_network.node[6].content_store 	decision_ratio[6] 	0
scalar one_cache_scenario_3_links_network.client[0] 	hdistance[0] 	0.8420566975388
scalar one_cache_scenario_3_links_network.client[0] 	downloads[0] 	18000605
scalar one_cache_scenario_3_links_network.client[0] 	avg_time[0] 	0
scalar one_cache_scenario_3_links_network.client[0] 	interests_sent[0] 	18000605
