version 2
run General-0-20150626-20:00:25-14930
attr D lce
attr F spr
attr R lru
attr a 1
attr configname General
attr datetime 20150626-20:00:25
attr experiment General
attr inifile omnetpp.ini
attr iterationvars "$net=abilene, $rep=0, $a=1, $F=spr, $ttl=1000, $D=lce, $R=lru, $window=60, $variance=0.05, $mytime=1800"
attr iterationvars2 "$net=abilene, $rep=0, $a=1, $F=spr, $ttl=1000, $D=lce, $R=lru, $window=60, $variance=0.05, $mytime=1800, $repetition=0"
attr measurement "$net=abilene, $rep=0, $a=1, $F=spr, $ttl=1000, $D=lce, $R=lru, $window=60, $variance=0.05, $mytime=1800"
attr mytime 1800
attr net abilene
attr network networks.${net=abilene}_network
attr processid 14930
attr rep 0
attr repetition 0
attr replication #0
attr resultdir results
attr runnumber 0
attr seedset 0
attr ttl 1000
attr variance 0.05
attr window 60

scalar . 	a 	1
scalar . 	mytime 	1800
scalar . 	rep 	0
scalar . 	ttl 	1000
scalar . 	variance 	0.05
scalar . 	window 	60
scalar abilene_network.content_distribution 	repo-0 	5
scalar abilene_network.content_distribution 	client-0 	8
scalar abilene_network.content_distribution 	client-1 	9
scalar abilene_network.content_distribution 	client-2 	5
scalar abilene_network.content_distribution 	client-3 	0
scalar abilene_network.content_distribution 	client-4 	1
scalar abilene_network.content_distribution 	client-5 	7
scalar abilene_network.content_distribution 	client-6 	6
scalar abilene_network.content_distribution 	client-7 	2
scalar abilene_network.content_distribution 	client-8 	4
scalar abilene_network.content_distribution 	client-9 	10
scalar abilene_network.content_distribution 	client-10 	3
scalar abilene_network.content_distribution 	repo-0_card 	10000
scalar abilene_network.content_distribution 	repo-0_price 	0
scalar abilene_network.statistics 	stabilization_time 	136.7
scalar abilene_network.statistics 	p_hit 	0.052319211102995
scalar abilene_network.statistics 	interests 	5973.8181818182
scalar abilene_network.statistics 	data 	4174
scalar abilene_network.statistics 	hdistance 	3.142243533899
scalar abilene_network.statistics 	avg_time 	0.013109179731
scalar abilene_network.statistics 	downloads 	19803
scalar abilene_network.statistics 	total_cost 	0
scalar abilene_network.statistics 	total_replicas 	10000
scalar abilene_network.statistics 	inner_hit 	0.17396354087764
scalar abilene_network.node[0].core_layer 	interests[0] 	1802
scalar abilene_network.node[0].core_layer 	data[0] 	1583
scalar abilene_network.node[0].core_layer 	megabytes_sent[face$o[1]->client[0]] 	1802
scalar abilene_network.node[0].core_layer 	megabytes_sent[face$o[2]->node[1]] 	0
scalar abilene_network.node[0].core_layer 	megabytes_sent[face$o[3]->node[10]] 	0
scalar abilene_network.node[0].content_store 	p_hit[0] 	0.12153163152053
scalar abilene_network.node[0].content_store 	hits[0] 	219
scalar abilene_network.node[0].content_store 	misses[0] 	1583
scalar abilene_network.node[0].content_store 	decision_yes[0] 	1583
scalar abilene_network.node[0].content_store 	decision_no[0] 	0
scalar abilene_network.node[0].content_store 	decision_ratio[0] 	1
scalar abilene_network.node[1].core_layer 	interests[1] 	4981
scalar abilene_network.node[1].core_layer 	data[1] 	4603
scalar abilene_network.node[1].core_layer 	megabytes_sent[face$o[1]->client[1]] 	1819
scalar abilene_network.node[1].core_layer 	megabytes_sent[face$o[2]->node[0]] 	1583
scalar abilene_network.node[1].core_layer 	megabytes_sent[face$o[3]->node[10]] 	1580
scalar abilene_network.node[1].core_layer 	megabytes_sent[face$o[4]->node[2]] 	0
scalar abilene_network.node[1].content_store 	p_hit[1] 	0.075687612929131
scalar abilene_network.node[1].content_store 	hits[1] 	377
scalar abilene_network.node[1].content_store 	misses[1] 	4604
scalar abilene_network.node[1].content_store 	decision_yes[1] 	4603
scalar abilene_network.node[1].content_store 	decision_no[1] 	0
scalar abilene_network.node[1].content_store 	decision_ratio[1] 	1
scalar abilene_network.node[2].core_layer 	interests[2] 	6362
scalar abilene_network.node[2].core_layer 	data[2] 	6062
scalar abilene_network.node[2].core_layer 	megabytes_sent[face$o[1]->client[2]] 	1760
scalar abilene_network.node[2].core_layer 	megabytes_sent[face$o[2]->node[1]] 	4603
scalar abilene_network.node[2].core_layer 	megabytes_sent[face$o[3]->node[3]] 	0
scalar abilene_network.node[2].core_layer 	megabytes_sent[face$o[4]->node[8]] 	0
scalar abilene_network.node[2].content_store 	p_hit[2] 	0.04715498270984
scalar abilene_network.node[2].content_store 	hits[2] 	300
scalar abilene_network.node[2].content_store 	misses[2] 	6062
scalar abilene_network.node[2].content_store 	decision_yes[2] 	6062
scalar abilene_network.node[2].content_store 	decision_no[2] 	0
scalar abilene_network.node[2].content_store 	decision_ratio[2] 	1
scalar abilene_network.node[3].core_layer 	interests[3] 	7868
scalar abilene_network.node[3].core_layer 	data[3] 	7587
scalar abilene_network.node[3].core_layer 	megabytes_sent[face$o[1]->client[3]] 	1807
scalar abilene_network.node[3].core_layer 	megabytes_sent[face$o[2]->node[2]] 	6062
scalar abilene_network.node[3].core_layer 	megabytes_sent[face$o[3]->node[4]] 	0
scalar abilene_network.node[3].core_layer 	megabytes_sent[face$o[4]->node[7]] 	0
scalar abilene_network.node[3].content_store 	p_hit[3] 	0.035714285714286
scalar abilene_network.node[3].content_store 	hits[3] 	281
scalar abilene_network.node[3].content_store 	misses[3] 	7587
scalar abilene_network.node[3].content_store 	decision_yes[3] 	7587
scalar abilene_network.node[3].content_store 	decision_no[3] 	0
scalar abilene_network.node[3].content_store 	decision_ratio[3] 	1
scalar abilene_network.node[4].core_layer 	interests[4] 	9355
scalar abilene_network.node[4].core_layer 	data[4] 	9073
scalar abilene_network.node[4].core_layer 	megabytes_sent[face$o[1]->client[4]] 	1769
scalar abilene_network.node[4].core_layer 	megabytes_sent[face$o[2]->node[3]] 	7587
scalar abilene_network.node[4].core_layer 	megabytes_sent[face$o[3]->node[5]] 	0
scalar abilene_network.node[4].content_store 	p_hit[4] 	0.030251202565473
scalar abilene_network.node[4].content_store 	hits[4] 	283
scalar abilene_network.node[4].content_store 	misses[4] 	9072
scalar abilene_network.node[4].content_store 	decision_yes[4] 	9073
scalar abilene_network.node[4].content_store 	decision_no[4] 	0
scalar abilene_network.node[4].content_store 	decision_ratio[4] 	1
scalar abilene_network.node[5].core_layer 	interests[5] 	16991
scalar abilene_network.node[5].core_layer 	repo_load[5] 	16358
scalar abilene_network.node[5].core_layer 	data[5] 	0
scalar abilene_network.node[5].core_layer 	megabytes_sent[face$o[1]->client[5]] 	1828
scalar abilene_network.node[5].core_layer 	megabytes_sent[face$o[2]->node[4]] 	9072
scalar abilene_network.node[5].core_layer 	megabytes_sent[face$o[3]->node[6]] 	6091
scalar abilene_network.node[5].content_store 	p_hit[5] 	0.037255017362133
scalar abilene_network.node[5].content_store 	hits[5] 	633
scalar abilene_network.node[5].content_store 	misses[5] 	16358
scalar abilene_network.node[5].content_store 	decision_yes[5] 	16358
scalar abilene_network.node[5].content_store 	decision_no[5] 	0
scalar abilene_network.node[5].content_store 	decision_ratio[5] 	1
scalar abilene_network.node[6].core_layer 	interests[6] 	6403
scalar abilene_network.node[6].core_layer 	data[6] 	6091
scalar abilene_network.node[6].core_layer 	megabytes_sent[face$o[1]->client[6]] 	1798
scalar abilene_network.node[6].core_layer 	megabytes_sent[face$o[2]->node[5]] 	0
scalar abilene_network.node[6].core_layer 	megabytes_sent[face$o[3]->node[7]] 	4605
scalar abilene_network.node[6].content_store 	p_hit[6] 	0.048727159144151
scalar abilene_network.node[6].content_store 	hits[6] 	312
scalar abilene_network.node[6].content_store 	misses[6] 	6091
scalar abilene_network.node[6].content_store 	decision_yes[6] 	6091
scalar abilene_network.node[6].content_store 	decision_no[6] 	0
scalar abilene_network.node[6].content_store 	decision_ratio[6] 	1
scalar abilene_network.node[7].core_layer 	interests[7] 	4894
scalar abilene_network.node[7].core_layer 	data[7] 	4605
scalar abilene_network.node[7].core_layer 	megabytes_sent[face$o[1]->client[7]] 	1817
scalar abilene_network.node[7].core_layer 	megabytes_sent[face$o[2]->node[3]] 	0
scalar abilene_network.node[7].core_layer 	megabytes_sent[face$o[3]->node[6]] 	0
scalar abilene_network.node[7].core_layer 	megabytes_sent[face$o[4]->node[8]] 	3077
scalar abilene_network.node[7].content_store 	p_hit[7] 	0.058643236616265
scalar abilene_network.node[7].content_store 	hits[7] 	287
scalar abilene_network.node[7].content_store 	misses[7] 	4607
scalar abilene_network.node[7].content_store 	decision_yes[7] 	4605
scalar abilene_network.node[7].content_store 	decision_no[7] 	0
scalar abilene_network.node[7].content_store 	decision_ratio[7] 	1
scalar abilene_network.node[8].core_layer 	interests[8] 	3363
scalar abilene_network.node[8].core_layer 	data[8] 	3077
scalar abilene_network.node[8].core_layer 	megabytes_sent[face$o[1]->client[8]] 	1710
scalar abilene_network.node[8].core_layer 	megabytes_sent[face$o[2]->node[2]] 	0
scalar abilene_network.node[8].core_layer 	megabytes_sent[face$o[3]->node[7]] 	0
scalar abilene_network.node[8].core_layer 	megabytes_sent[face$o[4]->node[9]] 	1653
scalar abilene_network.node[8].content_store 	p_hit[8] 	0.085043116265239
scalar abilene_network.node[8].content_store 	hits[8] 	286
scalar abilene_network.node[8].content_store 	misses[8] 	3077
scalar abilene_network.node[8].content_store 	decision_yes[8] 	3077
scalar abilene_network.node[8].content_store 	decision_no[8] 	0
scalar abilene_network.node[8].content_store 	decision_ratio[8] 	1
scalar abilene_network.node[9].core_layer 	interests[9] 	1881
scalar abilene_network.node[9].core_layer 	data[9] 	1653
scalar abilene_network.node[9].core_layer 	megabytes_sent[face$o[1]->client[9]] 	1881
scalar abilene_network.node[9].core_layer 	megabytes_sent[face$o[2]->node[10]] 	0
scalar abilene_network.node[9].core_layer 	megabytes_sent[face$o[3]->node[8]] 	0
scalar abilene_network.node[9].content_store 	p_hit[9] 	0.12121212121212
scalar abilene_network.node[9].content_store 	hits[9] 	228
scalar abilene_network.node[9].content_store 	misses[9] 	1653
scalar abilene_network.node[9].content_store 	decision_yes[9] 	1653
scalar abilene_network.node[9].content_store 	decision_no[9] 	0
scalar abilene_network.node[9].content_store 	decision_ratio[9] 	1
scalar abilene_network.node[10].core_layer 	interests[10] 	1812
scalar abilene_network.node[10].core_layer 	data[10] 	1580
scalar abilene_network.node[10].core_layer 	megabytes_sent[face$o[1]->client[10]] 	1812
scalar abilene_network.node[10].core_layer 	megabytes_sent[face$o[2]->node[0]] 	0
scalar abilene_network.node[10].core_layer 	megabytes_sent[face$o[3]->node[1]] 	0
scalar abilene_network.node[10].core_layer 	megabytes_sent[face$o[4]->node[9]] 	0
scalar abilene_network.node[10].content_store 	p_hit[10] 	0.1280353200883
scalar abilene_network.node[10].content_store 	hits[10] 	232
scalar abilene_network.node[10].content_store 	misses[10] 	1580
scalar abilene_network.node[10].content_store 	decision_yes[10] 	1580
scalar abilene_network.node[10].content_store 	decision_no[10] 	0
scalar abilene_network.node[10].content_store 	decision_ratio[10] 	1
scalar abilene_network.client[0] 	hdistance[0].real 	4.9123196448391
scalar abilene_network.client[0] 	downloads[0].real 	1802
scalar abilene_network.client[0] 	avg_time[0].real 	0.026053410276
scalar abilene_network.client[1] 	hdistance[1].real 	4.2204507971413
scalar abilene_network.client[1] 	downloads[1].real 	1819
scalar abilene_network.client[1] 	avg_time[1].real 	0.017293617349
scalar abilene_network.client[2] 	hdistance[2].real 	3.45
scalar abilene_network.client[2] 	downloads[2].real 	1760
scalar abilene_network.client[2] 	avg_time[2].real 	0.012399960404
scalar abilene_network.client[3] 	hdistance[3].real 	2.6474820143885
scalar abilene_network.client[3] 	downloads[3].real 	1807
scalar abilene_network.client[3] 	avg_time[3].real 	0.008363762691
scalar abilene_network.client[4] 	hdistance[4].real 	1.7812323346523
scalar abilene_network.client[4] 	downloads[4].real 	1769
scalar abilene_network.client[4] 	avg_time[4].real 	0.00693603122
scalar abilene_network.client[5] 	hdistance[5].real 	0.91630196936543
scalar abilene_network.client[5] 	downloads[5].real 	1828
scalar abilene_network.client[5] 	avg_time[5].real 	0
scalar abilene_network.client[6] 	hdistance[6].real 	1.7291434927697
scalar abilene_network.client[6] 	downloads[6].real 	1798
scalar abilene_network.client[6] 	avg_time[6].real 	0.001951612459
scalar abilene_network.client[7] 	hdistance[7].real 	2.6031920748487
scalar abilene_network.client[7] 	downloads[7].real 	1817
scalar abilene_network.client[7] 	avg_time[7].real 	0.007116253965
scalar abilene_network.client[8] 	hdistance[8].real 	3.2982456140351
scalar abilene_network.client[8] 	downloads[8].real 	1710
scalar abilene_network.client[8] 	avg_time[8].real 	0.01317536799
scalar abilene_network.client[9] 	hdistance[9].real 	4.1531100478469
scalar abilene_network.client[9] 	downloads[9].real 	1881
scalar abilene_network.client[9] 	avg_time[9].real 	0.025928121365
scalar abilene_network.client[10] 	hdistance[10].real 	4.8532008830022
scalar abilene_network.client[10] 	downloads[10].real 	1812
scalar abilene_network.client[10] 	avg_time[10].real 	0.024982839331
