version 2
run General-11-20140703-16:01:55-12479
attr D costprobtailperf
attr F nrr
attr R lru
attr a 1
attr configname General
attr csize 1e3
attr ctlg 1e5
attr datetime 20140703-16:01:55
attr experiment General
attr inifile omnetpp.ini
attr iterationvars "$net=geant_cost, $rep=1, $priceratiovalue=2, $weights=0.333_0.333_0.334, $lambda=100, $a=1, $ctlg=1e5, $F=nrr, $ttl=1000, $D=costprobtailperf, $xi=1, $R=lru, $csize=1e3, $pricebits=0, $window=60, $variance=0.05, $mytime=1800"
attr iterationvars2 "$net=geant_cost, $rep=1, $priceratiovalue=2, $weights=0.333_0.333_0.334, $lambda=100, $a=1, $ctlg=1e5, $F=nrr, $ttl=1000, $D=costprobtailperf, $xi=1, $R=lru, $csize=1e3, $pricebits=0, $window=60, $variance=0.05, $mytime=1800, $repetition=0"
attr lambda 100
attr measurement "$net=geant_cost, $rep=1, $priceratiovalue=2, $weights=0.333_0.333_0.334, $lambda=100, $a=1, $ctlg=1e5, $F=nrr, $ttl=1000, $D=costprobtailperf, $xi=1, $R=lru, $csize=1e3, $pricebits=0, $window=60, $variance=0.05, $mytime=1800"
attr mytime 1800
attr net geant_cost
attr network "networks.${net=geant_cost, abilene_cost}_network"
attr pricebits 0
attr priceratiovalue 2
attr processid 12479
attr rep 1
attr repetition 0
attr replication #0
attr resultdir results
attr runnumber 11
attr seedset 1
attr ttl 1000
attr variance 0.05
attr weights 0.333_0.333_0.334
attr window 60
attr xi 1

scalar . 	a 	1
scalar . 	csize 	1e3
scalar . 	ctlg 	1e5
scalar . 	lambda 	100
scalar . 	mytime 	1800
scalar . 	pricebits 	0
scalar . 	priceratiovalue 	2
scalar . 	rep 	1
scalar . 	ttl 	1000
scalar . 	variance 	0.05
scalar . 	window 	60
scalar . 	xi 	1
scalar geant_cost_network.content_distribution 	repo-0 	22
scalar geant_cost_network.content_distribution 	repo-1 	23
scalar geant_cost_network.content_distribution 	repo-2 	24
scalar geant_cost_network.content_distribution 	client-0 	20
scalar geant_cost_network.content_distribution 	client-1 	10
scalar geant_cost_network.content_distribution 	client-2 	12
scalar geant_cost_network.content_distribution 	client-3 	9
scalar geant_cost_network.content_distribution 	client-4 	5
scalar geant_cost_network.content_distribution 	repo-0_card 	33396
scalar geant_cost_network.content_distribution 	repo-1_card 	33039
scalar geant_cost_network.content_distribution 	repo-2_card 	33565
scalar geant_cost_network.statistics 	repo_popularity[0] 	0.28686251265602
scalar geant_cost_network.statistics 	repo_popularity[1] 	0.2886063426465
scalar geant_cost_network.statistics 	repo_popularity[2] 	0.42453114469748
scalar geant_cost_network.node[7].face$o[4].channel 	price[7] 	0
scalar geant_cost_network.node[7].face$o[4].channel 	represented_price[7] 	0
scalar geant_cost_network.node[8].face$o[3].channel 	price[8] 	0
scalar geant_cost_network.node[8].face$o[3].channel 	represented_price[8] 	0
scalar geant_cost_network.node[21].face$o[5].channel 	price[21] 	0
scalar geant_cost_network.node[21].face$o[5].channel 	represented_price[21] 	0
scalar geant_cost_network.node[22].face$o[1].channel 	price[22] 	0
scalar geant_cost_network.node[22].face$o[1].channel 	represented_price[22] 	0
scalar geant_cost_network.node[23].face$o[1].channel 	price[23] 	1
scalar geant_cost_network.node[23].face$o[1].channel 	represented_price[23] 	1
scalar geant_cost_network.node[24].face$o[1].channel 	price[24] 	2
scalar geant_cost_network.node[24].face$o[1].channel 	represented_price[24] 	2
scalar geant_cost_network.statistics 	p_hit 	0.13820337479955
scalar geant_cost_network.statistics 	interests 	220651.92
scalar geant_cost_network.statistics 	data 	155735.36
scalar geant_cost_network.statistics 	hdistance 	2.9314689619747
scalar geant_cost_network.statistics 	avg_time 	0.005713434258
scalar geant_cost_network.statistics 	downloads 	1621420
scalar geant_cost_network.statistics 	total_cost 	761286
scalar geant_cost_network.statistics 	total_replicas 	100000
scalar geant_cost_network.statistics 	inner_hit 	0.47099517706702
scalar geant_cost_network.statistics 	interests_sent 	1622907
scalar geant_cost_network.node[0].core_layer 	interests[0] 	0
scalar geant_cost_network.node[0].core_layer 	data[0] 	0
scalar geant_cost_network.node[0].core_layer 	repo_int[0] 	857739
scalar geant_cost_network.node[0].content_store 	p_hit[0] 	-nan
scalar geant_cost_network.node[0].content_store 	hits[0] 	0
scalar geant_cost_network.node[0].content_store 	misses[0] 	0
scalar geant_cost_network.node[0].content_store 	decision_yes[0] 	0
scalar geant_cost_network.node[0].content_store 	decision_no[0] 	0
scalar geant_cost_network.node[0].content_store 	decision_ratio[0] 	0
scalar geant_cost_network.node[0].content_store 	correction_factor[0] 	6.5080619334806e-317
scalar geant_cost_network.node[0].content_store 	xi[0] 	1
scalar geant_cost_network.node[1].core_layer 	interests[1] 	0
scalar geant_cost_network.node[1].core_layer 	data[1] 	0
scalar geant_cost_network.node[1].content_store 	p_hit[1] 	-nan
scalar geant_cost_network.node[1].content_store 	hits[1] 	0
scalar geant_cost_network.node[1].content_store 	misses[1] 	0
scalar geant_cost_network.node[1].content_store 	decision_yes[1] 	0
scalar geant_cost_network.node[1].content_store 	decision_no[1] 	0
scalar geant_cost_network.node[1].content_store 	decision_ratio[1] 	0
scalar geant_cost_network.node[1].content_store 	correction_factor[1] 	6.5216388574283e-317
scalar geant_cost_network.node[1].content_store 	xi[1] 	1
scalar geant_cost_network.node[2].core_layer 	interests[2] 	0
scalar geant_cost_network.node[2].core_layer 	data[2] 	0
scalar geant_cost_network.node[2].content_store 	p_hit[2] 	-nan
scalar geant_cost_network.node[2].content_store 	hits[2] 	0
scalar geant_cost_network.node[2].content_store 	misses[2] 	0
scalar geant_cost_network.node[2].content_store 	decision_yes[2] 	0
scalar geant_cost_network.node[2].content_store 	decision_no[2] 	0
scalar geant_cost_network.node[2].content_store 	decision_ratio[2] 	0
scalar geant_cost_network.node[2].content_store 	correction_factor[2] 	6.5243028593907e-317
scalar geant_cost_network.node[2].content_store 	xi[2] 	1
scalar geant_cost_network.node[3].core_layer 	interests[3] 	316376
scalar geant_cost_network.node[3].core_layer 	data[3] 	286485
scalar geant_cost_network.node[3].content_store 	p_hit[3] 	0.094469871292386
scalar geant_cost_network.node[3].content_store 	hits[3] 	29888
scalar geant_cost_network.node[3].content_store 	misses[3] 	286488
scalar geant_cost_network.node[3].content_store 	decision_yes[3] 	49
scalar geant_cost_network.node[3].content_store 	decision_no[3] 	286436
scalar geant_cost_network.node[3].content_store 	decision_ratio[3] 	0.00017103862331361
scalar geant_cost_network.node[3].content_store 	correction_factor[3] 	6.526943146202e-317
scalar geant_cost_network.node[3].content_store 	xi[3] 	1
scalar geant_cost_network.node[4].core_layer 	interests[4] 	394395
scalar geant_cost_network.node[4].core_layer 	data[4] 	387283
scalar geant_cost_network.node[4].content_store 	p_hit[4] 	0.017989578975393
scalar geant_cost_network.node[4].content_store 	hits[4] 	7095
scalar geant_cost_network.node[4].content_store 	misses[4] 	387300
scalar geant_cost_network.node[4].content_store 	decision_yes[4] 	48
scalar geant_cost_network.node[4].content_store 	decision_no[4] 	387235
scalar geant_cost_network.node[4].content_store 	decision_ratio[4] 	0.00012394037435157
scalar geant_cost_network.node[4].content_store 	correction_factor[4] 	6.5205677231081e-317
scalar geant_cost_network.node[4].content_store 	xi[4] 	1
scalar geant_cost_network.node[5].core_layer 	interests[5] 	356553
scalar geant_cost_network.node[5].core_layer 	data[5] 	242922
scalar geant_cost_network.node[5].content_store 	p_hit[5] 	0.31791346588025
scalar geant_cost_network.node[5].content_store 	hits[5] 	113353
scalar geant_cost_network.node[5].content_store 	misses[5] 	243200
scalar geant_cost_network.node[5].content_store 	decision_yes[5] 	156
scalar geant_cost_network.node[5].content_store 	decision_no[5] 	242766
scalar geant_cost_network.node[5].content_store 	decision_ratio[5] 	0.00064218144095636
scalar geant_cost_network.node[5].content_store 	correction_factor[5] 	6.5325794470898e-317
scalar geant_cost_network.node[5].content_store 	xi[5] 	1
scalar geant_cost_network.node[6].core_layer 	interests[6] 	143600
scalar geant_cost_network.node[6].core_layer 	data[6] 	127019
scalar geant_cost_network.node[6].content_store 	p_hit[6] 	0.11546657381616
scalar geant_cost_network.node[6].content_store 	hits[6] 	16581
scalar geant_cost_network.node[6].content_store 	misses[6] 	127019
scalar geant_cost_network.node[6].content_store 	decision_yes[6] 	46
scalar geant_cost_network.node[6].content_store 	decision_no[6] 	126973
scalar geant_cost_network.node[6].content_store 	decision_ratio[6] 	0.00036215054440674
scalar geant_cost_network.node[6].content_store 	correction_factor[6] 	6.5353462147065e-317
scalar geant_cost_network.node[6].content_store 	xi[6] 	1
scalar geant_cost_network.node[7].core_layer 	interests[7] 	511538
scalar geant_cost_network.node[7].core_layer 	data[7] 	470456
scalar geant_cost_network.node[7].content_store 	p_hit[7] 	0.080300974707646
scalar geant_cost_network.node[7].content_store 	hits[7] 	41077
scalar geant_cost_network.node[7].content_store 	misses[7] 	470461
scalar geant_cost_network.node[7].content_store 	decision_yes[7] 	204
scalar geant_cost_network.node[7].content_store 	decision_no[7] 	470252
scalar geant_cost_network.node[7].content_store 	decision_ratio[7] 	0.00043362184773921
scalar geant_cost_network.node[7].content_store 	correction_factor[7] 	6.5379153560649e-317
scalar geant_cost_network.node[7].content_store 	xi[7] 	1
scalar geant_cost_network.node[8].core_layer 	interests[8] 	454729
scalar geant_cost_network.node[8].core_layer 	data[8] 	427589
scalar geant_cost_network.node[8].content_store 	p_hit[8] 	0.059683899641325
scalar geant_cost_network.node[8].content_store 	hits[8] 	27140
scalar geant_cost_network.node[8].content_store 	misses[8] 	427589
scalar geant_cost_network.node[8].content_store 	decision_yes[8] 	55
scalar geant_cost_network.node[8].content_store 	decision_no[8] 	427534
scalar geant_cost_network.node[8].content_store 	decision_ratio[8] 	0.00012862819202552
scalar geant_cost_network.node[8].content_store 	correction_factor[8] 	6.5407453640843e-317
scalar geant_cost_network.node[8].content_store 	xi[8] 	1
scalar geant_cost_network.node[9].core_layer 	interests[9] 	652961
scalar geant_cost_network.node[9].core_layer 	data[9] 	541068
scalar geant_cost_network.node[9].content_store 	p_hit[9] 	0.1701985264051
scalar geant_cost_network.node[9].content_store 	hits[9] 	111133
scalar geant_cost_network.node[9].content_store 	misses[9] 	541828
scalar geant_cost_network.node[9].content_store 	decision_yes[9] 	156
scalar geant_cost_network.node[9].content_store 	decision_no[9] 	540912
scalar geant_cost_network.node[9].content_store 	decision_ratio[9] 	0.00028831865865289
scalar geant_cost_network.node[9].content_store 	correction_factor[9] 	6.5434726064493e-317
scalar geant_cost_network.node[9].content_store 	xi[9] 	1
scalar geant_cost_network.node[10].core_layer 	interests[10] 	360511
scalar geant_cost_network.node[10].core_layer 	data[10] 	237890
scalar geant_cost_network.node[10].content_store 	p_hit[10] 	0.33931558260358
scalar geant_cost_network.node[10].content_store 	hits[10] 	122327
scalar geant_cost_network.node[10].content_store 	misses[10] 	238184
scalar geant_cost_network.node[10].content_store 	decision_yes[10] 	159
scalar geant_cost_network.node[10].content_store 	decision_no[10] 	237731
scalar geant_cost_network.node[10].content_store 	decision_ratio[10] 	0.00066837614023288
scalar geant_cost_network.node[10].content_store 	correction_factor[10] 	6.511152808161e-317
scalar geant_cost_network.node[10].content_store 	xi[10] 	1
scalar geant_cost_network.node[11].core_layer 	interests[11] 	0
scalar geant_cost_network.node[11].core_layer 	data[11] 	0
scalar geant_cost_network.node[11].content_store 	p_hit[11] 	-nan
scalar geant_cost_network.node[11].content_store 	hits[11] 	0
scalar geant_cost_network.node[11].content_store 	misses[11] 	0
scalar geant_cost_network.node[11].content_store 	decision_yes[11] 	0
scalar geant_cost_network.node[11].content_store 	decision_no[11] 	0
scalar geant_cost_network.node[11].content_store 	decision_ratio[11] 	0
scalar geant_cost_network.node[11].content_store 	correction_factor[11] 	6.5082121294369e-317
scalar geant_cost_network.node[11].content_store 	xi[11] 	1
scalar geant_cost_network.node[12].core_layer 	interests[12] 	506643
scalar geant_cost_network.node[12].core_layer 	data[12] 	393278
scalar geant_cost_network.node[12].content_store 	p_hit[12] 	0.22147152926222
scalar geant_cost_network.node[12].content_store 	hits[12] 	112207
scalar geant_cost_network.node[12].content_store 	misses[12] 	394436
scalar geant_cost_network.node[12].content_store 	decision_yes[12] 	155
scalar geant_cost_network.node[12].content_store 	decision_no[12] 	393123
scalar geant_cost_network.node[12].content_store 	decision_ratio[12] 	0.00039412324106612
scalar geant_cost_network.node[12].content_store 	correction_factor[12] 	6.5092239758796e-317
scalar geant_cost_network.node[12].content_store 	xi[12] 	1
scalar geant_cost_network.node[13].core_layer 	interests[13] 	32105
scalar geant_cost_network.node[13].core_layer 	data[13] 	42
scalar geant_cost_network.node[13].content_store 	p_hit[13] 	0.99869179255568
scalar geant_cost_network.node[13].content_store 	hits[13] 	32063
scalar geant_cost_network.node[13].content_store 	misses[13] 	42
scalar geant_cost_network.node[13].content_store 	decision_yes[13] 	42
scalar geant_cost_network.node[13].content_store 	decision_no[13] 	0
scalar geant_cost_network.node[13].content_store 	decision_ratio[13] 	1
scalar geant_cost_network.node[13].content_store 	correction_factor[13] 	6.5092239758796e-317
scalar geant_cost_network.node[13].content_store 	xi[13] 	1
scalar geant_cost_network.node[14].core_layer 	interests[14] 	90812
scalar geant_cost_network.node[14].core_layer 	data[14] 	77747
scalar geant_cost_network.node[14].content_store 	p_hit[14] 	0.14386865172004
scalar geant_cost_network.node[14].content_store 	hits[14] 	13065
scalar geant_cost_network.node[14].content_store 	misses[14] 	77747
scalar geant_cost_network.node[14].content_store 	decision_yes[14] 	48
scalar geant_cost_network.node[14].content_store 	decision_no[14] 	77699
scalar geant_cost_network.node[14].content_store 	decision_ratio[14] 	0.00061738716606429
scalar geant_cost_network.node[14].content_store 	correction_factor[14] 	6.5265044159085e-317
scalar geant_cost_network.node[14].content_store 	xi[14] 	1
scalar geant_cost_network.node[15].core_layer 	interests[15] 	0
scalar geant_cost_network.node[15].core_layer 	data[15] 	0
scalar geant_cost_network.node[15].content_store 	p_hit[15] 	-nan
scalar geant_cost_network.node[15].content_store 	hits[15] 	0
scalar geant_cost_network.node[15].content_store 	misses[15] 	0
scalar geant_cost_network.node[15].content_store 	decision_yes[15] 	0
scalar geant_cost_network.node[15].content_store 	decision_no[15] 	0
scalar geant_cost_network.node[15].content_store 	decision_ratio[15] 	0
scalar geant_cost_network.node[15].content_store 	correction_factor[15] 	6.5070579920882e-317
scalar geant_cost_network.node[15].content_store 	xi[15] 	1
scalar geant_cost_network.node[16].core_layer 	interests[16] 	0
scalar geant_cost_network.node[16].core_layer 	data[16] 	0
scalar geant_cost_network.node[16].content_store 	p_hit[16] 	-nan
scalar geant_cost_network.node[16].content_store 	hits[16] 	0
scalar geant_cost_network.node[16].content_store 	misses[16] 	0
scalar geant_cost_network.node[16].content_store 	decision_yes[16] 	0
scalar geant_cost_network.node[16].content_store 	decision_no[16] 	0
scalar geant_cost_network.node[16].content_store 	decision_ratio[16] 	0
scalar geant_cost_network.node[16].content_store 	correction_factor[16] 	6.536994417701e-317
scalar geant_cost_network.node[16].content_store 	xi[16] 	1
scalar geant_cost_network.node[17].core_layer 	interests[17] 	0
scalar geant_cost_network.node[17].core_layer 	data[17] 	0
scalar geant_cost_network.node[17].content_store 	p_hit[17] 	-nan
scalar geant_cost_network.node[17].content_store 	hits[17] 	0
scalar geant_cost_network.node[17].content_store 	misses[17] 	0
scalar geant_cost_network.node[17].content_store 	decision_yes[17] 	0
scalar geant_cost_network.node[17].content_store 	decision_no[17] 	0
scalar geant_cost_network.node[17].content_store 	decision_ratio[17] 	0
scalar geant_cost_network.node[17].content_store 	correction_factor[17] 	6.5237929836442e-317
scalar geant_cost_network.node[17].content_store 	xi[17] 	1
scalar geant_cost_network.node[18].core_layer 	interests[18] 	217191
scalar geant_cost_network.node[18].core_layer 	data[18] 	180098
scalar geant_cost_network.node[18].content_store 	p_hit[18] 	0.17076674447836
scalar geant_cost_network.node[18].content_store 	hits[18] 	37089
scalar geant_cost_network.node[18].content_store 	misses[18] 	180102
scalar geant_cost_network.node[18].content_store 	decision_yes[18] 	219
scalar geant_cost_network.node[18].content_store 	decision_no[18] 	179879
scalar geant_cost_network.node[18].content_store 	decision_ratio[18] 	0.001216004619707
scalar geant_cost_network.node[18].content_store 	correction_factor[18] 	6.5168839696527e-317
scalar geant_cost_network.node[18].content_store 	xi[18] 	1
scalar geant_cost_network.node[19].core_layer 	interests[19] 	0
scalar geant_cost_network.node[19].core_layer 	data[19] 	0
scalar geant_cost_network.node[19].content_store 	p_hit[19] 	-nan
scalar geant_cost_network.node[19].content_store 	hits[19] 	0
scalar geant_cost_network.node[19].content_store 	misses[19] 	0
scalar geant_cost_network.node[19].content_store 	decision_yes[19] 	0
scalar geant_cost_network.node[19].content_store 	decision_no[19] 	0
scalar geant_cost_network.node[19].content_store 	decision_ratio[19] 	0
scalar geant_cost_network.node[19].content_store 	correction_factor[19] 	6.5481484437215e-317
scalar geant_cost_network.node[19].content_store 	xi[19] 	1
scalar geant_cost_network.node[20].core_layer 	interests[20] 	338857
scalar geant_cost_network.node[20].core_layer 	data[20] 	266216
scalar geant_cost_network.node[20].content_store 	p_hit[20] 	0.21352960098213
scalar geant_cost_network.node[20].content_store 	hits[20] 	72356
scalar geant_cost_network.node[20].content_store 	misses[20] 	266501
scalar geant_cost_network.node[20].content_store 	decision_yes[20] 	190
scalar geant_cost_network.node[20].content_store 	decision_no[20] 	266026
scalar geant_cost_network.node[20].content_store 	decision_ratio[20] 	0.00071370616341617
scalar geant_cost_network.node[20].content_store 	correction_factor[20] 	6.536994417701e-317
scalar geant_cost_network.node[20].content_store 	xi[20] 	1
scalar geant_cost_network.node[21].core_layer 	interests[21] 	282288
scalar geant_cost_network.node[21].core_layer 	data[21] 	255291
scalar geant_cost_network.node[21].content_store 	p_hit[21] 	0.095636371365414
scalar geant_cost_network.node[21].content_store 	hits[21] 	26997
scalar geant_cost_network.node[21].content_store 	misses[21] 	255291
scalar geant_cost_network.node[21].content_store 	decision_yes[21] 	56
scalar geant_cost_network.node[21].content_store 	decision_no[21] 	255235
scalar geant_cost_network.node[21].content_store 	decision_ratio[21] 	0.00021935751749964
scalar geant_cost_network.node[21].content_store 	correction_factor[21] 	6.5168839696527e-317
scalar geant_cost_network.node[21].content_store 	xi[21] 	1
scalar geant_cost_network.node[22].core_layer 	interests[22] 	351744
scalar geant_cost_network.node[22].core_layer 	repo_load[22] 	351744
scalar geant_cost_network.node[22].core_layer 	data[22] 	0
scalar geant_cost_network.node[22].content_store 	p_hit[22] 	0
scalar geant_cost_network.node[22].content_store 	hits[22] 	0
scalar geant_cost_network.node[22].content_store 	misses[22] 	351744
scalar geant_cost_network.node[22].content_store 	decision_yes[22] 	0
scalar geant_cost_network.node[22].content_store 	decision_no[22] 	351744
scalar geant_cost_network.node[22].content_store 	decision_ratio[22] 	0
scalar geant_cost_network.node[23].core_layer 	interests[23] 	250704
scalar geant_cost_network.node[23].core_layer 	repo_load[23] 	250704
scalar geant_cost_network.node[23].core_layer 	data[23] 	0
scalar geant_cost_network.node[23].content_store 	p_hit[23] 	0
scalar geant_cost_network.node[23].content_store 	hits[23] 	0
scalar geant_cost_network.node[23].content_store 	misses[23] 	250704
scalar geant_cost_network.node[23].content_store 	decision_yes[23] 	0
scalar geant_cost_network.node[23].content_store 	decision_no[23] 	250704
scalar geant_cost_network.node[23].content_store 	decision_ratio[23] 	0
scalar geant_cost_network.node[24].core_layer 	interests[24] 	255291
scalar geant_cost_network.node[24].core_layer 	repo_load[24] 	255291
scalar geant_cost_network.node[24].core_layer 	data[24] 	0
scalar geant_cost_network.node[24].content_store 	p_hit[24] 	0
scalar geant_cost_network.node[24].content_store 	hits[24] 	0
scalar geant_cost_network.node[24].content_store 	misses[24] 	255291
scalar geant_cost_network.node[24].content_store 	decision_yes[24] 	0
scalar geant_cost_network.node[24].content_store 	decision_no[24] 	255291
scalar geant_cost_network.node[24].content_store 	decision_ratio[24] 	0
scalar geant_cost_network.client[5] 	hdistance[5] 	2.6519836549544
scalar geant_cost_network.client[5] 	downloads[5] 	324502
scalar geant_cost_network.client[5] 	avg_time[5] 	0.007347852824
scalar geant_cost_network.client[5] 	interests_sent[5] 	324744
scalar geant_cost_network.client[9] 	hdistance[9] 	2.6695322906902
scalar geant_cost_network.client[9] 	downloads[9] 	324304
scalar geant_cost_network.client[9] 	avg_time[9] 	0.004352133668
scalar geant_cost_network.client[9] 	interests_sent[9] 	324591
scalar geant_cost_network.client[10] 	hdistance[10] 	3.3400946439431
scalar geant_cost_network.client[10] 	downloads[10] 	323951
scalar geant_cost_network.client[10] 	avg_time[10] 	0.005678425399
scalar geant_cost_network.client[10] 	interests_sent[10] 	324245
scalar geant_cost_network.client[12] 	hdistance[12] 	2.8765894230978
scalar geant_cost_network.client[12] 	downloads[12] 	323781
scalar geant_cost_network.client[12] 	avg_time[12] 	0.005417337226
scalar geant_cost_network.client[12] 	interests_sent[12] 	324160
scalar geant_cost_network.client[20] 	hdistance[20] 	3.1191447971879
scalar geant_cost_network.client[20] 	downloads[20] 	324882
scalar geant_cost_network.client[20] 	avg_time[20] 	0.005771422176
scalar geant_cost_network.client[20] 	interests_sent[20] 	325167
