version 2
run General-1003-20140502-02:59:15-9906
attr D fix0.05
attr F nrr
attr R lru
attr a 1.2
attr configname General
attr csize 1e3
attr ctlg 1e5
attr datetime 20140502-02:59:15
attr experiment General
attr inifile omnetpp.ini
attr iterationvars "$net=three_caches_scenario_3_links, $rep=2, $priceratiovalue=5, $weights=0_0.5_0.5, $a=1.2, $ctlg=1e5, $F=nrr, $ttl=1000, $D=fix0.05, $xi=1, $R=lru, $csize=1e3"
attr iterationvars2 "$net=three_caches_scenario_3_links, $rep=2, $priceratiovalue=5, $weights=0_0.5_0.5, $a=1.2, $ctlg=1e5, $F=nrr, $ttl=1000, $D=fix0.05, $xi=1, $R=lru, $csize=1e3, $repetition=0"
attr measurement "$net=three_caches_scenario_3_links, $rep=2, $priceratiovalue=5, $weights=0_0.5_0.5, $a=1.2, $ctlg=1e5, $F=nrr, $ttl=1000, $D=fix0.05, $xi=1, $R=lru, $csize=1e3"
attr net three_caches_scenario_3_links
attr network networks.${net=three_caches_scenario_3_links}_network
attr priceratiovalue 5
attr processid 9906
attr rep 2
attr repetition 0
attr replication #0
attr resultdir results
attr runnumber 1003
attr seedset 2
attr ttl 1000
attr weights 0_0.5_0.5
attr xi 1

scalar . 	a 	1.2
scalar . 	csize 	1e3
scalar . 	ctlg 	1e5
scalar . 	priceratiovalue 	5
scalar . 	rep 	2
scalar . 	ttl 	1000
scalar . 	xi 	1
scalar three_caches_scenario_3_links_network.content_distribution 	repo-0 	4
scalar three_caches_scenario_3_links_network.content_distribution 	repo-1 	5
scalar three_caches_scenario_3_links_network.content_distribution 	repo-2 	6
scalar three_caches_scenario_3_links_network.content_distribution 	client-0 	0
scalar three_caches_scenario_3_links_network.content_distribution 	repo-0_card 	0
scalar three_caches_scenario_3_links_network.content_distribution 	repo-1_card 	50028
scalar three_caches_scenario_3_links_network.content_distribution 	repo-2_card 	49972
scalar three_caches_scenario_3_links_network.statistics 	p_hit 	0.56923358831006
scalar three_caches_scenario_3_links_network.statistics 	interests 	36642
scalar three_caches_scenario_3_links_network.statistics 	data 	10923
scalar three_caches_scenario_3_links_network.statistics 	hdistance 	0.61371526331284
scalar three_caches_scenario_3_links_network.statistics 	avg_time 	0
scalar three_caches_scenario_3_links_network.statistics 	downloads 	180033
scalar three_caches_scenario_3_links_network.statistics 	total_cost 	102596
scalar three_caches_scenario_3_links_network.statistics 	total_replicas 	100000
scalar three_caches_scenario_3_links_network.statistics 	interests_sent 	180033
scalar three_caches_scenario_3_links_network.node[0].core_layer 	interests[0] 	180033
scalar three_caches_scenario_3_links_network.node[0].core_layer 	data[0] 	42433
scalar three_caches_scenario_3_links_network.node[0].core_layer 	repo_int[0] 	34028
scalar three_caches_scenario_3_links_network.node[0].content_store 	p_hit[0] 	0.76430432198541
scalar three_caches_scenario_3_links_network.node[0].content_store 	hits[0] 	137600
scalar three_caches_scenario_3_links_network.node[0].content_store 	misses[0] 	42433
scalar three_caches_scenario_3_links_network.node[0].content_store 	decision_yes[0] 	2165
scalar three_caches_scenario_3_links_network.node[0].content_store 	decision_no[0] 	40268
scalar three_caches_scenario_3_links_network.node[1].core_layer 	interests[1] 	0
scalar three_caches_scenario_3_links_network.node[1].core_layer 	data[1] 	0
scalar three_caches_scenario_3_links_network.node[1].content_store 	p_hit[1] 	-nan
scalar three_caches_scenario_3_links_network.node[1].content_store 	hits[1] 	0
scalar three_caches_scenario_3_links_network.node[1].content_store 	misses[1] 	0
scalar three_caches_scenario_3_links_network.node[1].content_store 	decision_yes[1] 	0
scalar three_caches_scenario_3_links_network.node[1].content_store 	decision_no[1] 	0
scalar three_caches_scenario_3_links_network.node[2].core_layer 	interests[2] 	21004
scalar three_caches_scenario_3_links_network.node[2].core_layer 	data[2] 	16886
scalar three_caches_scenario_3_links_network.node[2].content_store 	p_hit[2] 	0.19605789373453
scalar three_caches_scenario_3_links_network.node[2].content_store 	hits[2] 	4118
scalar three_caches_scenario_3_links_network.node[2].content_store 	misses[2] 	16886
scalar three_caches_scenario_3_links_network.node[2].content_store 	decision_yes[2] 	800
scalar three_caches_scenario_3_links_network.node[2].content_store 	decision_no[2] 	16086
scalar three_caches_scenario_3_links_network.node[3].core_layer 	interests[3] 	21429
scalar three_caches_scenario_3_links_network.node[3].core_layer 	data[3] 	17142
scalar three_caches_scenario_3_links_network.node[3].content_store 	p_hit[3] 	0.20005599888002
scalar three_caches_scenario_3_links_network.node[3].content_store 	hits[3] 	4287
scalar three_caches_scenario_3_links_network.node[3].content_store 	misses[3] 	17142
scalar three_caches_scenario_3_links_network.node[3].content_store 	decision_yes[3] 	901
scalar three_caches_scenario_3_links_network.node[3].content_store 	decision_no[3] 	16241
scalar three_caches_scenario_3_links_network.node[4].core_layer 	interests[4] 	0
scalar three_caches_scenario_3_links_network.node[4].core_layer 	data[4] 	0
scalar three_caches_scenario_3_links_network.node[4].content_store 	p_hit[4] 	-nan
scalar three_caches_scenario_3_links_network.node[4].content_store 	hits[4] 	0
scalar three_caches_scenario_3_links_network.node[4].content_store 	misses[4] 	0
scalar three_caches_scenario_3_links_network.node[4].content_store 	decision_yes[4] 	0
scalar three_caches_scenario_3_links_network.node[4].content_store 	decision_no[4] 	0
scalar three_caches_scenario_3_links_network.node[5].core_layer 	interests[5] 	16886
scalar three_caches_scenario_3_links_network.node[5].core_layer 	repo_load[5] 	16886
scalar three_caches_scenario_3_links_network.node[5].core_layer 	data[5] 	0
scalar three_caches_scenario_3_links_network.node[5].content_store 	p_hit[5] 	0
scalar three_caches_scenario_3_links_network.node[5].content_store 	hits[5] 	0
scalar three_caches_scenario_3_links_network.node[5].content_store 	misses[5] 	16886
scalar three_caches_scenario_3_links_network.node[5].content_store 	decision_yes[5] 	0
scalar three_caches_scenario_3_links_network.node[5].content_store 	decision_no[5] 	16886
scalar three_caches_scenario_3_links_network.node[6].core_layer 	interests[6] 	17142
scalar three_caches_scenario_3_links_network.node[6].core_layer 	repo_load[6] 	17142
scalar three_caches_scenario_3_links_network.node[6].core_layer 	data[6] 	0
scalar three_caches_scenario_3_links_network.node[6].content_store 	p_hit[6] 	0
scalar three_caches_scenario_3_links_network.node[6].content_store 	hits[6] 	0
scalar three_caches_scenario_3_links_network.node[6].content_store 	misses[6] 	17142
scalar three_caches_scenario_3_links_network.node[6].content_store 	decision_yes[6] 	0
scalar three_caches_scenario_3_links_network.node[6].content_store 	decision_no[6] 	17142
scalar three_caches_scenario_3_links_network.client[0] 	hdistance[0] 	0.61371526331284
scalar three_caches_scenario_3_links_network.client[0] 	downloads[0] 	180033
scalar three_caches_scenario_3_links_network.client[0] 	avg_time[0] 	0
scalar three_caches_scenario_3_links_network.client[0] 	interests_sent[0] 	180033
