version 2
run General-387-20140422-19:46:47-27111
attr D fix0.01
attr F nrr
attr R lru
attr a 0
attr configname General
attr csize 10
attr ctlg 10^3
attr datetime 20140422-19:46:47
attr experiment General
attr inifile omnetpp.ini
attr iterationvars "$net=simple_scenario, $rep=4, $priceratiovalue=3, $a=0, $ctlg=10^3, $F=nrr, $ttl=1000, $D=fix0.01, $R=lru, $csize=10"
attr iterationvars2 "$net=simple_scenario, $rep=4, $priceratiovalue=3, $a=0, $ctlg=10^3, $F=nrr, $ttl=1000, $D=fix0.01, $R=lru, $csize=10, $repetition=0"
attr measurement "$net=simple_scenario, $rep=4, $priceratiovalue=3, $a=0, $ctlg=10^3, $F=nrr, $ttl=1000, $D=fix0.01, $R=lru, $csize=10"
attr net simple_scenario
attr network networks.${net=simple_scenario}_network
attr priceratiovalue 3
attr processid 27111
attr rep 4
attr repetition 0
attr replication #0
attr resultdir results
attr runnumber 387
attr seedset 4
attr ttl 1000

scalar . 	a 	0
scalar . 	csize 	10
scalar . 	priceratiovalue 	3
scalar . 	rep 	4
scalar . 	ttl 	1000
scalar simple_scenario_network.content_distribution 	repo-0 	3
scalar simple_scenario_network.content_distribution 	repo-1 	4
scalar simple_scenario_network.content_distribution 	client-0 	0
scalar simple_scenario_network.content_distribution 	repo-0_card 	490
scalar simple_scenario_network.content_distribution 	repo-1_card 	510
scalar simple_scenario_network.statistics 	p_hit 	0.010146931622665
scalar simple_scenario_network.statistics 	interests 	106593.8
scalar simple_scenario_network.statistics 	data 	70581.6
scalar simple_scenario_network.statistics 	hdistance 	2.9299011440631
scalar simple_scenario_network.statistics 	avg_time 	0.001999759888
scalar simple_scenario_network.statistics 	downloads 	180060
scalar simple_scenario_network.statistics 	total_cost 	88175
scalar simple_scenario_network.node[0].core_layer 	interests[0] 	180061
scalar simple_scenario_network.node[0].core_layer 	data[0] 	178255
scalar simple_scenario_network.node[0].core_layer 	repo_int[0] 	174653
scalar simple_scenario_network.node[0].content_store 	p_hit[0] 	0.010029934300043
scalar simple_scenario_network.node[0].content_store 	hits[0] 	1806
scalar simple_scenario_network.node[0].content_store 	misses[0] 	178255
scalar simple_scenario_network.node[1].core_layer 	interests[1] 	87416
scalar simple_scenario_network.node[1].core_layer 	data[1] 	85628
scalar simple_scenario_network.node[1].content_store 	p_hit[1] 	0.020453921478905
scalar simple_scenario_network.node[1].content_store 	hits[1] 	1788
scalar simple_scenario_network.node[1].content_store 	misses[1] 	85628
scalar simple_scenario_network.node[2].core_layer 	interests[2] 	90839
scalar simple_scenario_network.node[2].core_layer 	data[2] 	89025
scalar simple_scenario_network.node[2].content_store 	p_hit[2] 	0.019969396404628
scalar simple_scenario_network.node[2].content_store 	hits[2] 	1814
scalar simple_scenario_network.node[2].content_store 	misses[2] 	89025
scalar simple_scenario_network.node[3].core_layer 	interests[3] 	85628
scalar simple_scenario_network.node[3].core_layer 	repo_load[3] 	85628
scalar simple_scenario_network.node[3].core_layer 	data[3] 	0
scalar simple_scenario_network.node[3].content_store 	p_hit[3] 	0
scalar simple_scenario_network.node[3].content_store 	hits[3] 	0
scalar simple_scenario_network.node[3].content_store 	misses[3] 	85628
scalar simple_scenario_network.node[4].core_layer 	interests[4] 	89025
scalar simple_scenario_network.node[4].core_layer 	repo_load[4] 	89025
scalar simple_scenario_network.node[4].core_layer 	data[4] 	0
scalar simple_scenario_network.node[4].content_store 	p_hit[4] 	0
scalar simple_scenario_network.node[4].content_store 	hits[4] 	0
scalar simple_scenario_network.node[4].content_store 	misses[4] 	89025
scalar simple_scenario_network.client[0] 	hdistance[0] 	2.9299011440631
scalar simple_scenario_network.client[0] 	downloads[0] 	180060
scalar simple_scenario_network.client[0] 	avg_time[0] 	0.001999759888
