version 2
run General-2816-20140425-03:51:27-14537
attr D fix0.01
attr F nrr
attr R lru
attr a 0
attr configname General
attr csize 30
attr ctlg 10^3
attr datetime 20140425-03:51:27
attr experiment General
attr inifile omnetpp.ini
attr iterationvars "$net=one_cache_scenario, $rep=7, $priceratiovalue=8, $a=0, $ctlg=10^3, $F=nrr, $ttl=1000, $D=fix0.01, $R=lru, $csize=30"
attr iterationvars2 "$net=one_cache_scenario, $rep=7, $priceratiovalue=8, $a=0, $ctlg=10^3, $F=nrr, $ttl=1000, $D=fix0.01, $R=lru, $csize=30, $repetition=0"
attr measurement "$net=one_cache_scenario, $rep=7, $priceratiovalue=8, $a=0, $ctlg=10^3, $F=nrr, $ttl=1000, $D=fix0.01, $R=lru, $csize=30"
attr net one_cache_scenario
attr network networks.${net=one_cache_scenario}_network
attr priceratiovalue 8
attr processid 14537
attr rep 7
attr repetition 0
attr replication #0
attr resultdir results
attr runnumber 2816
attr seedset 7
attr ttl 1000

scalar . 	a 	0
scalar . 	csize 	30
scalar . 	priceratiovalue 	8
scalar . 	rep 	7
scalar . 	ttl 	1000
scalar one_cache_scenario_network.content_distribution 	repo-0 	3
scalar one_cache_scenario_network.content_distribution 	repo-1 	4
scalar one_cache_scenario_network.content_distribution 	client-0 	0
scalar one_cache_scenario_network.content_distribution 	repo-0_card 	487
scalar one_cache_scenario_network.content_distribution 	repo-1_card 	513
scalar one_cache_scenario_network.statistics 	p_hit 	0.010405291478298
scalar one_cache_scenario_network.statistics 	interests 	106042.2
scalar one_cache_scenario_network.statistics 	data 	69959.2
scalar one_cache_scenario_network.statistics 	hdistance 	1.9388410054596
scalar one_cache_scenario_network.statistics 	avg_time 	0
scalar one_cache_scenario_network.statistics 	downloads 	180415
scalar one_cache_scenario_network.statistics 	total_cost 	89295
scalar one_cache_scenario_network.statistics 	interests_sent 	180415
scalar one_cache_scenario_network.node[0].core_layer 	interests[0] 	180415
scalar one_cache_scenario_network.node[0].core_layer 	data[0] 	174898
scalar one_cache_scenario_network.node[0].core_layer 	repo_int[0] 	174898
scalar one_cache_scenario_network.node[0].content_store 	p_hit[0] 	0.030579497270183
scalar one_cache_scenario_network.node[0].content_store 	hits[0] 	5517
scalar one_cache_scenario_network.node[0].content_store 	misses[0] 	174898
scalar one_cache_scenario_network.node[0].content_store 	decision_yes[0] 	1842
scalar one_cache_scenario_network.node[0].content_store 	decision_no[0] 	173056
scalar one_cache_scenario_network.node[1].core_layer 	interests[1] 	85074
scalar one_cache_scenario_network.node[1].core_layer 	data[1] 	85074
scalar one_cache_scenario_network.node[1].content_store 	p_hit[1] 	0
scalar one_cache_scenario_network.node[1].content_store 	hits[1] 	0
scalar one_cache_scenario_network.node[1].content_store 	misses[1] 	85074
scalar one_cache_scenario_network.node[1].content_store 	decision_yes[1] 	0
scalar one_cache_scenario_network.node[1].content_store 	decision_no[1] 	85074
scalar one_cache_scenario_network.node[2].core_layer 	interests[2] 	89824
scalar one_cache_scenario_network.node[2].core_layer 	data[2] 	89824
scalar one_cache_scenario_network.node[2].content_store 	p_hit[2] 	0
scalar one_cache_scenario_network.node[2].content_store 	hits[2] 	0
scalar one_cache_scenario_network.node[2].content_store 	misses[2] 	89824
scalar one_cache_scenario_network.node[2].content_store 	decision_yes[2] 	0
scalar one_cache_scenario_network.node[2].content_store 	decision_no[2] 	89824
scalar one_cache_scenario_network.node[3].core_layer 	interests[3] 	85074
scalar one_cache_scenario_network.node[3].core_layer 	repo_load[3] 	85074
scalar one_cache_scenario_network.node[3].core_layer 	data[3] 	0
scalar one_cache_scenario_network.node[3].content_store 	p_hit[3] 	0
scalar one_cache_scenario_network.node[3].content_store 	hits[3] 	0
scalar one_cache_scenario_network.node[3].content_store 	misses[3] 	85074
scalar one_cache_scenario_network.node[3].content_store 	decision_yes[3] 	0
scalar one_cache_scenario_network.node[3].content_store 	decision_no[3] 	85074
scalar one_cache_scenario_network.node[4].core_layer 	interests[4] 	89824
scalar one_cache_scenario_network.node[4].core_layer 	repo_load[4] 	89824
scalar one_cache_scenario_network.node[4].core_layer 	data[4] 	0
scalar one_cache_scenario_network.node[4].content_store 	p_hit[4] 	0
scalar one_cache_scenario_network.node[4].content_store 	hits[4] 	0
scalar one_cache_scenario_network.node[4].content_store 	misses[4] 	89824
scalar one_cache_scenario_network.node[4].content_store 	decision_yes[4] 	0
scalar one_cache_scenario_network.node[4].content_store 	decision_no[4] 	89824
scalar one_cache_scenario_network.client[0] 	hdistance[0] 	1.9388410054596
scalar one_cache_scenario_network.client[0] 	downloads[0] 	180415
scalar one_cache_scenario_network.client[0] 	avg_time[0] 	0
scalar one_cache_scenario_network.client[0] 	interests_sent[0] 	180415
