version 2
run General-6025-20140423-21:04:13-846
attr D lce
attr F nrr
attr R lru
attr a 0.8
attr configname General
attr csize 2
attr ctlg 10^3
attr datetime 20140423-21:04:13
attr experiment General
attr inifile omnetpp.ini
attr iterationvars "$net=simple_scenario, $rep=17, $priceratiovalue=8, $a=0.8, $ctlg=10^3, $F=nrr, $ttl=1000, $D=lce, $R=lru, $csize=2"
attr iterationvars2 "$net=simple_scenario, $rep=17, $priceratiovalue=8, $a=0.8, $ctlg=10^3, $F=nrr, $ttl=1000, $D=lce, $R=lru, $csize=2, $repetition=0"
attr measurement "$net=simple_scenario, $rep=17, $priceratiovalue=8, $a=0.8, $ctlg=10^3, $F=nrr, $ttl=1000, $D=lce, $R=lru, $csize=2"
attr net simple_scenario
attr network networks.${net=simple_scenario}_network
attr priceratiovalue 8
attr processid 846
attr rep 17
attr repetition 0
attr replication #0
attr resultdir results
attr runnumber 6025
attr seedset 17
attr ttl 1000

scalar . 	a 	0.8
scalar . 	csize 	2
scalar . 	priceratiovalue 	8
scalar . 	rep 	17
scalar . 	ttl 	1000
scalar simple_scenario_network.content_distribution 	repo-0 	3
scalar simple_scenario_network.content_distribution 	repo-1 	4
scalar simple_scenario_network.content_distribution 	client-0 	0
scalar simple_scenario_network.content_distribution 	repo-0_card 	481
scalar simple_scenario_network.content_distribution 	repo-1_card 	519
scalar simple_scenario_network.statistics 	p_hit 	0.011463788116528
scalar simple_scenario_network.statistics 	interests 	105794
scalar simple_scenario_network.statistics 	data 	69910.6
scalar simple_scenario_network.statistics 	hdistance 	2.9144734642009
scalar simple_scenario_network.statistics 	avg_time 	0.00199807859
scalar simple_scenario_network.statistics 	downloads 	179418
scalar simple_scenario_network.statistics 	total_cost 	94356
scalar simple_scenario_network.node[0].core_layer 	interests[0] 	179417
scalar simple_scenario_network.node[0].core_layer 	data[0] 	176200
scalar simple_scenario_network.node[0].core_layer 	repo_int[0] 	173353
scalar simple_scenario_network.node[0].content_store 	p_hit[0] 	0.017930296460202
scalar simple_scenario_network.node[0].content_store 	hits[0] 	3217
scalar simple_scenario_network.node[0].content_store 	misses[0] 	176200
scalar simple_scenario_network.node[1].core_layer 	interests[1] 	77690
scalar simple_scenario_network.node[1].core_layer 	data[1] 	76802
scalar simple_scenario_network.node[1].content_store 	p_hit[1] 	0.011430042476509
scalar simple_scenario_network.node[1].content_store 	hits[1] 	888
scalar simple_scenario_network.node[1].content_store 	misses[1] 	76802
scalar simple_scenario_network.node[2].core_layer 	interests[2] 	98510
scalar simple_scenario_network.node[2].core_layer 	data[2] 	96551
scalar simple_scenario_network.node[2].content_store 	p_hit[2] 	0.019886305958786
scalar simple_scenario_network.node[2].content_store 	hits[2] 	1959
scalar simple_scenario_network.node[2].content_store 	misses[2] 	96551
scalar simple_scenario_network.node[3].core_layer 	interests[3] 	76802
scalar simple_scenario_network.node[3].core_layer 	repo_load[3] 	76802
scalar simple_scenario_network.node[3].core_layer 	data[3] 	0
scalar simple_scenario_network.node[3].content_store 	p_hit[3] 	0
scalar simple_scenario_network.node[3].content_store 	hits[3] 	0
scalar simple_scenario_network.node[3].content_store 	misses[3] 	76802
scalar simple_scenario_network.node[4].core_layer 	interests[4] 	96551
scalar simple_scenario_network.node[4].core_layer 	repo_load[4] 	96551
scalar simple_scenario_network.node[4].core_layer 	data[4] 	0
scalar simple_scenario_network.node[4].content_store 	p_hit[4] 	0
scalar simple_scenario_network.node[4].content_store 	hits[4] 	0
scalar simple_scenario_network.node[4].content_store 	misses[4] 	96551
scalar simple_scenario_network.client[0] 	hdistance[0] 	2.9144734642009
scalar simple_scenario_network.client[0] 	downloads[0] 	179418
scalar simple_scenario_network.client[0] 	avg_time[0] 	0.00199807859
