version 2
run General-2785-20140423-19:42:23-10079
attr D lce
attr F nrr
attr R lru
attr a 0.8
attr configname General
attr csize 2
attr ctlg 10^3
attr datetime 20140423-19:42:23
attr experiment General
attr inifile omnetpp.ini
attr iterationvars "$net=simple_scenario, $rep=8, $priceratiovalue=8, $a=0.8, $ctlg=10^3, $F=nrr, $ttl=1000, $D=lce, $R=lru, $csize=2"
attr iterationvars2 "$net=simple_scenario, $rep=8, $priceratiovalue=8, $a=0.8, $ctlg=10^3, $F=nrr, $ttl=1000, $D=lce, $R=lru, $csize=2, $repetition=0"
attr measurement "$net=simple_scenario, $rep=8, $priceratiovalue=8, $a=0.8, $ctlg=10^3, $F=nrr, $ttl=1000, $D=lce, $R=lru, $csize=2"
attr net simple_scenario
attr network networks.${net=simple_scenario}_network
attr priceratiovalue 8
attr processid 10079
attr rep 8
attr repetition 0
attr replication #0
attr resultdir results
attr runnumber 2785
attr seedset 8
attr ttl 1000

scalar . 	a 	0.8
scalar . 	csize 	2
scalar . 	priceratiovalue 	8
scalar . 	rep 	8
scalar . 	ttl 	1000
scalar simple_scenario_network.content_distribution 	repo-0 	3
scalar simple_scenario_network.content_distribution 	repo-1 	4
scalar simple_scenario_network.content_distribution 	client-0 	0
scalar simple_scenario_network.content_distribution 	repo-0_card 	485
scalar simple_scenario_network.content_distribution 	repo-1_card 	515
scalar simple_scenario_network.statistics 	p_hit 	0.012018827169228
scalar simple_scenario_network.statistics 	interests 	106017
scalar simple_scenario_network.statistics 	data 	70037
scalar simple_scenario_network.statistics 	hdistance 	2.9111395219566
scalar simple_scenario_network.statistics 	avg_time 	0.001998173433
scalar simple_scenario_network.statistics 	downloads 	179900
scalar simple_scenario_network.statistics 	total_cost 	94199
scalar simple_scenario_network.node[0].core_layer 	interests[0] 	179900
scalar simple_scenario_network.node[0].core_layer 	data[0] 	176656
scalar simple_scenario_network.node[0].core_layer 	repo_int[0] 	173529
scalar simple_scenario_network.node[0].content_store 	p_hit[0] 	0.018032240133407
scalar simple_scenario_network.node[0].content_store 	hits[0] 	3244
scalar simple_scenario_network.node[0].content_store 	misses[0] 	176656
scalar simple_scenario_network.node[1].core_layer 	interests[1] 	78413
scalar simple_scenario_network.node[1].core_layer 	data[1] 	77205
scalar simple_scenario_network.node[1].content_store 	p_hit[1] 	0.015405608763853
scalar simple_scenario_network.node[1].content_store 	hits[1] 	1208
scalar simple_scenario_network.node[1].content_store 	misses[1] 	77205
scalar simple_scenario_network.node[2].core_layer 	interests[2] 	98243
scalar simple_scenario_network.node[2].core_layer 	data[2] 	96324
scalar simple_scenario_network.node[2].content_store 	p_hit[2] 	0.019533198294026
scalar simple_scenario_network.node[2].content_store 	hits[2] 	1919
scalar simple_scenario_network.node[2].content_store 	misses[2] 	96324
scalar simple_scenario_network.node[3].core_layer 	interests[3] 	77205
scalar simple_scenario_network.node[3].core_layer 	repo_load[3] 	77205
scalar simple_scenario_network.node[3].core_layer 	data[3] 	0
scalar simple_scenario_network.node[3].content_store 	p_hit[3] 	0
scalar simple_scenario_network.node[3].content_store 	hits[3] 	0
scalar simple_scenario_network.node[3].content_store 	misses[3] 	77205
scalar simple_scenario_network.node[4].core_layer 	interests[4] 	96324
scalar simple_scenario_network.node[4].core_layer 	repo_load[4] 	96324
scalar simple_scenario_network.node[4].core_layer 	data[4] 	0
scalar simple_scenario_network.node[4].content_store 	p_hit[4] 	0
scalar simple_scenario_network.node[4].content_store 	hits[4] 	0
scalar simple_scenario_network.node[4].content_store 	misses[4] 	96324
scalar simple_scenario_network.client[0] 	hdistance[0] 	2.9111395219566
scalar simple_scenario_network.client[0] 	downloads[0] 	179900
scalar simple_scenario_network.client[0] 	avg_time[0] 	0.001998173433
