version 2
run General-5403-20140425-08:01:44-18262
attr D costprob0.0002
attr F nrr
attr R lru
attr a 0.8
attr configname General
attr csize 9
attr ctlg 10^3
attr datetime 20140425-08:01:44
attr experiment General
attr inifile omnetpp.ini
attr iterationvars "$net=one_cache_scenario, $rep=13, $priceratiovalue=9, $a=0.8, $ctlg=10^3, $F=nrr, $ttl=1000, $D=costprob0.0002, $R=lru, $csize=9"
attr iterationvars2 "$net=one_cache_scenario, $rep=13, $priceratiovalue=9, $a=0.8, $ctlg=10^3, $F=nrr, $ttl=1000, $D=costprob0.0002, $R=lru, $csize=9, $repetition=0"
attr measurement "$net=one_cache_scenario, $rep=13, $priceratiovalue=9, $a=0.8, $ctlg=10^3, $F=nrr, $ttl=1000, $D=costprob0.0002, $R=lru, $csize=9"
attr net one_cache_scenario
attr network networks.${net=one_cache_scenario}_network
attr priceratiovalue 9
attr processid 18262
attr rep 13
attr repetition 0
attr replication #0
attr resultdir results
attr runnumber 5403
attr seedset 13
attr ttl 1000

scalar . 	a 	0.8
scalar . 	csize 	9
scalar . 	priceratiovalue 	9
scalar . 	rep 	13
scalar . 	ttl 	1000
scalar one_cache_scenario_network.content_distribution 	repo-0 	3
scalar one_cache_scenario_network.content_distribution 	repo-1 	4
scalar one_cache_scenario_network.content_distribution 	client-0 	0
scalar one_cache_scenario_network.content_distribution 	repo-0_card 	508
scalar one_cache_scenario_network.content_distribution 	repo-1_card 	492
scalar one_cache_scenario_network.statistics 	p_hit 	0.037113973409992
scalar one_cache_scenario_network.statistics 	interests 	100323.4
scalar one_cache_scenario_network.statistics 	data 	64400
scalar one_cache_scenario_network.statistics 	hdistance 	1.7927033632674
scalar one_cache_scenario_network.statistics 	avg_time 	0
scalar one_cache_scenario_network.statistics 	downloads 	179617
scalar one_cache_scenario_network.statistics 	total_cost 	70995
scalar one_cache_scenario_network.statistics 	interests_sent 	179617
scalar one_cache_scenario_network.node[0].core_layer 	interests[0] 	179617
scalar one_cache_scenario_network.node[0].core_layer 	data[0] 	161000
scalar one_cache_scenario_network.node[0].core_layer 	repo_int[0] 	161000
scalar one_cache_scenario_network.node[0].content_store 	p_hit[0] 	0.1036483183663
scalar one_cache_scenario_network.node[0].content_store 	hits[0] 	18617
scalar one_cache_scenario_network.node[0].content_store 	misses[0] 	161000
scalar one_cache_scenario_network.node[0].content_store 	decision_yes[0] 	16
scalar one_cache_scenario_network.node[0].content_store 	decision_no[0] 	160984
scalar one_cache_scenario_network.node[1].core_layer 	interests[1] 	92379
scalar one_cache_scenario_network.node[1].core_layer 	data[1] 	92379
scalar one_cache_scenario_network.node[1].content_store 	p_hit[1] 	0
scalar one_cache_scenario_network.node[1].content_store 	hits[1] 	0
scalar one_cache_scenario_network.node[1].content_store 	misses[1] 	92379
scalar one_cache_scenario_network.node[1].content_store 	decision_yes[1] 	0
scalar one_cache_scenario_network.node[1].content_store 	decision_no[1] 	92379
scalar one_cache_scenario_network.node[2].core_layer 	interests[2] 	68621
scalar one_cache_scenario_network.node[2].core_layer 	data[2] 	68621
scalar one_cache_scenario_network.node[2].content_store 	p_hit[2] 	0
scalar one_cache_scenario_network.node[2].content_store 	hits[2] 	0
scalar one_cache_scenario_network.node[2].content_store 	misses[2] 	68621
scalar one_cache_scenario_network.node[2].content_store 	decision_yes[2] 	0
scalar one_cache_scenario_network.node[2].content_store 	decision_no[2] 	68621
scalar one_cache_scenario_network.node[3].core_layer 	interests[3] 	92379
scalar one_cache_scenario_network.node[3].core_layer 	repo_load[3] 	92379
scalar one_cache_scenario_network.node[3].core_layer 	data[3] 	0
scalar one_cache_scenario_network.node[3].content_store 	p_hit[3] 	0
scalar one_cache_scenario_network.node[3].content_store 	hits[3] 	0
scalar one_cache_scenario_network.node[3].content_store 	misses[3] 	92379
scalar one_cache_scenario_network.node[3].content_store 	decision_yes[3] 	0
scalar one_cache_scenario_network.node[3].content_store 	decision_no[3] 	92379
scalar one_cache_scenario_network.node[4].core_layer 	interests[4] 	68621
scalar one_cache_scenario_network.node[4].core_layer 	repo_load[4] 	68621
scalar one_cache_scenario_network.node[4].core_layer 	data[4] 	0
scalar one_cache_scenario_network.node[4].content_store 	p_hit[4] 	0
scalar one_cache_scenario_network.node[4].content_store 	hits[4] 	0
scalar one_cache_scenario_network.node[4].content_store 	misses[4] 	68621
scalar one_cache_scenario_network.node[4].content_store 	decision_yes[4] 	0
scalar one_cache_scenario_network.node[4].content_store 	decision_no[4] 	68621
scalar one_cache_scenario_network.client[0] 	hdistance[0] 	1.7927033632674
scalar one_cache_scenario_network.client[0] 	downloads[0] 	179617
scalar one_cache_scenario_network.client[0] 	avg_time[0] 	0
scalar one_cache_scenario_network.client[0] 	interests_sent[0] 	179617
