version 2
run General-6-20140512-16:51:24-30177
attr D costprobprodcorr0.01
attr F spr
attr R lru
attr a 1
attr configname General
attr csize 1e3
attr ctlg 1e5
attr datetime 20140512-16:51:24
attr experiment General
attr inifile omnetpp.ini
attr iterationvars "$net=abilene_cost, $rep=1, $priceratiovalue=10, $weights=0.333_0.333_0.334, $a=1, $ctlg=1e5, $F=spr, $ttl=1000, $D=costprobprodcorr0.01, $xi=1.50, $R=lru, $csize=1e3"
attr iterationvars2 "$net=abilene_cost, $rep=1, $priceratiovalue=10, $weights=0.333_0.333_0.334, $a=1, $ctlg=1e5, $F=spr, $ttl=1000, $D=costprobprodcorr0.01, $xi=1.50, $R=lru, $csize=1e3, $repetition=0"
attr measurement "$net=abilene_cost, $rep=1, $priceratiovalue=10, $weights=0.333_0.333_0.334, $a=1, $ctlg=1e5, $F=spr, $ttl=1000, $D=costprobprodcorr0.01, $xi=1.50, $R=lru, $csize=1e3"
attr net abilene_cost
attr network networks.${net=abilene_cost}_network
attr priceratiovalue 10
attr processid 30177
attr rep 1
attr repetition 0
attr replication #0
attr resultdir results
attr runnumber 6
attr seedset 1
attr ttl 1000
attr weights 0.333_0.333_0.334
attr xi 1.50

scalar . 	a 	1
scalar . 	csize 	1e3
scalar . 	ctlg 	1e5
scalar . 	priceratiovalue 	10
scalar . 	rep 	1
scalar . 	ttl 	1000
scalar . 	xi 	1.50
scalar abilene_cost_network.content_distribution 	repo-0 	11
scalar abilene_cost_network.content_distribution 	repo-1 	12
scalar abilene_cost_network.content_distribution 	repo-2 	13
scalar abilene_cost_network.content_distribution 	client-0 	3
scalar abilene_cost_network.content_distribution 	client-1 	7
scalar abilene_cost_network.content_distribution 	client-2 	10
scalar abilene_cost_network.content_distribution 	repo-0_card 	33396
scalar abilene_cost_network.content_distribution 	repo-1_card 	33039
scalar abilene_cost_network.content_distribution 	repo-2_card 	33565
scalar abilene_cost_network.statistics 	p_hit 	0.11095207876811
scalar abilene_cost_network.statistics 	interests 	144075.71428571
scalar abilene_cost_network.statistics 	data 	105572.07142857
scalar abilene_cost_network.statistics 	hdistance 	3.3268620815596
scalar abilene_cost_network.statistics 	avg_time 	0
scalar abilene_cost_network.statistics 	downloads 	539051
scalar abilene_cost_network.statistics 	total_cost 	931143
scalar abilene_cost_network.statistics 	total_replicas 	100000
scalar abilene_cost_network.statistics 	interests_sent 	539051
scalar abilene_cost_network.node[0].core_layer 	interests[0] 	153773
scalar abilene_cost_network.node[0].core_layer 	data[0] 	153773
scalar abilene_cost_network.node[0].core_layer 	repo_int[0] 	315254
scalar abilene_cost_network.node[0].content_store 	p_hit[0] 	0
scalar abilene_cost_network.node[0].content_store 	hits[0] 	0
scalar abilene_cost_network.node[0].content_store 	misses[0] 	153773
scalar abilene_cost_network.node[0].content_store 	decision_yes[0] 	0
scalar abilene_cost_network.node[0].content_store 	decision_no[0] 	153773
scalar abilene_cost_network.node[0].content_store 	decision_ratio[0] 	0
scalar abilene_cost_network.node[0].content_store 	correction_factor[0] 	0.00091785160364391
scalar abilene_cost_network.node[0].content_store 	xi[0] 	1.5
scalar abilene_cost_network.node[1].core_layer 	interests[1] 	102513
scalar abilene_cost_network.node[1].core_layer 	data[1] 	100605
scalar abilene_cost_network.node[1].content_store 	p_hit[1] 	0.018612273565304
scalar abilene_cost_network.node[1].content_store 	hits[1] 	1908
scalar abilene_cost_network.node[1].content_store 	misses[1] 	100605
scalar abilene_cost_network.node[1].content_store 	decision_yes[1] 	27
scalar abilene_cost_network.node[1].content_store 	decision_no[1] 	100578
scalar abilene_cost_network.node[1].content_store 	decision_ratio[1] 	0.00026837632324437
scalar abilene_cost_network.node[1].content_store 	correction_factor[1] 	0.00091785160364391
scalar abilene_cost_network.node[1].content_store 	xi[1] 	1.5
scalar abilene_cost_network.node[2].core_layer 	interests[2] 	100605
scalar abilene_cost_network.node[2].core_layer 	data[2] 	97683
scalar abilene_cost_network.node[2].content_store 	p_hit[2] 	0.029044282093335
scalar abilene_cost_network.node[2].content_store 	hits[2] 	2922
scalar abilene_cost_network.node[2].content_store 	misses[2] 	97683
scalar abilene_cost_network.node[2].content_store 	decision_yes[2] 	19
scalar abilene_cost_network.node[2].content_store 	decision_no[2] 	97664
scalar abilene_cost_network.node[2].content_store 	decision_ratio[2] 	0.00019450672071906
scalar abilene_cost_network.node[2].content_store 	correction_factor[2] 	0.00091785160364391
scalar abilene_cost_network.node[2].content_store 	xi[2] 	1.5
scalar abilene_cost_network.node[3].core_layer 	interests[3] 	226266
scalar abilene_cost_network.node[3].core_layer 	data[3] 	195113
scalar abilene_cost_network.node[3].content_store 	p_hit[3] 	0.13768308097549
scalar abilene_cost_network.node[3].content_store 	hits[3] 	31153
scalar abilene_cost_network.node[3].content_store 	misses[3] 	195113
scalar abilene_cost_network.node[3].content_store 	decision_yes[3] 	876
scalar abilene_cost_network.node[3].content_store 	decision_no[3] 	194237
scalar abilene_cost_network.node[3].content_store 	decision_ratio[3] 	0.0044897059652612
scalar abilene_cost_network.node[3].content_store 	correction_factor[3] 	0.00091785160364391
scalar abilene_cost_network.node[3].content_store 	xi[3] 	1.5
scalar abilene_cost_network.node[4].core_layer 	interests[4] 	76897
scalar abilene_cost_network.node[4].core_layer 	data[4] 	67649
scalar abilene_cost_network.node[4].content_store 	p_hit[4] 	0.12026476975695
scalar abilene_cost_network.node[4].content_store 	hits[4] 	9248
scalar abilene_cost_network.node[4].content_store 	misses[4] 	67649
scalar abilene_cost_network.node[4].content_store 	decision_yes[4] 	39
scalar abilene_cost_network.node[4].content_store 	decision_no[4] 	67610
scalar abilene_cost_network.node[4].content_store 	decision_ratio[4] 	0.00057650519593786
scalar abilene_cost_network.node[4].content_store 	correction_factor[4] 	0.00091785160364391
scalar abilene_cost_network.node[4].content_store 	xi[4] 	1.5
scalar abilene_cost_network.node[5].core_layer 	interests[5] 	106977
scalar abilene_cost_network.node[5].core_layer 	data[5] 	75963
scalar abilene_cost_network.node[5].content_store 	p_hit[5] 	0.28991278499117
scalar abilene_cost_network.node[5].content_store 	hits[5] 	31014
scalar abilene_cost_network.node[5].content_store 	misses[5] 	75963
scalar abilene_cost_network.node[5].content_store 	decision_yes[5] 	66
scalar abilene_cost_network.node[5].content_store 	decision_no[5] 	75897
scalar abilene_cost_network.node[5].content_store 	decision_ratio[5] 	0.00086884404249437
scalar abilene_cost_network.node[5].content_store 	correction_factor[5] 	0.00091785160364391
scalar abilene_cost_network.node[5].content_store 	xi[5] 	1.5
scalar abilene_cost_network.node[6].core_layer 	interests[6] 	50399
scalar abilene_cost_network.node[6].core_layer 	data[6] 	39328
scalar abilene_cost_network.node[6].content_store 	p_hit[6] 	0.21966705688605
scalar abilene_cost_network.node[6].content_store 	hits[6] 	11071
scalar abilene_cost_network.node[6].content_store 	misses[6] 	39328
scalar abilene_cost_network.node[6].content_store 	decision_yes[6] 	30
scalar abilene_cost_network.node[6].content_store 	decision_no[6] 	39298
scalar abilene_cost_network.node[6].content_store 	decision_ratio[6] 	0.00076281529698942
scalar abilene_cost_network.node[6].content_store 	correction_factor[6] 	0.00091785160364391
scalar abilene_cost_network.node[6].content_store 	xi[6] 	1.5
scalar abilene_cost_network.node[7].core_layer 	interests[7] 	246465
scalar abilene_cost_network.node[7].core_layer 	data[7] 	232413
scalar abilene_cost_network.node[7].content_store 	p_hit[7] 	0.057014180512446
scalar abilene_cost_network.node[7].content_store 	hits[7] 	14052
scalar abilene_cost_network.node[7].content_store 	misses[7] 	232413
scalar abilene_cost_network.node[7].content_store 	decision_yes[7] 	1666
scalar abilene_cost_network.node[7].content_store 	decision_no[7] 	230747
scalar abilene_cost_network.node[7].content_store 	decision_ratio[7] 	0.0071682737196284
scalar abilene_cost_network.node[7].content_store 	correction_factor[7] 	0.00091785160364391
scalar abilene_cost_network.node[7].content_store 	xi[7] 	1.5
scalar abilene_cost_network.node[8].core_layer 	interests[8] 	182014
scalar abilene_cost_network.node[8].core_layer 	data[8] 	169658
scalar abilene_cost_network.node[8].content_store 	p_hit[8] 	0.06788488797565
scalar abilene_cost_network.node[8].content_store 	hits[8] 	12356
scalar abilene_cost_network.node[8].content_store 	misses[8] 	169658
scalar abilene_cost_network.node[8].content_store 	decision_yes[8] 	1640
scalar abilene_cost_network.node[8].content_store 	decision_no[8] 	168018
scalar abilene_cost_network.node[8].content_store 	decision_ratio[8] 	0.0096665055582407
scalar abilene_cost_network.node[8].content_store 	correction_factor[8] 	0.00091785160364391
scalar abilene_cost_network.node[8].content_store 	xi[8] 	1.5
scalar abilene_cost_network.node[9].core_layer 	interests[9] 	224902
scalar abilene_cost_network.node[9].core_layer 	data[9] 	136696
scalar abilene_cost_network.node[9].content_store 	p_hit[9] 	0.39219749046251
scalar abilene_cost_network.node[9].content_store 	hits[9] 	88206
scalar abilene_cost_network.node[9].content_store 	misses[9] 	136696
scalar abilene_cost_network.node[9].content_store 	decision_yes[9] 	2409
scalar abilene_cost_network.node[9].content_store 	decision_no[9] 	134287
scalar abilene_cost_network.node[9].content_store 	decision_ratio[9] 	0.017623046760695
scalar abilene_cost_network.node[9].content_store 	correction_factor[9] 	0.00091785160364391
scalar abilene_cost_network.node[9].content_store 	xi[9] 	1.5
scalar abilene_cost_network.node[10].core_layer 	interests[10] 	230995
scalar abilene_cost_network.node[10].core_layer 	data[10] 	209128
scalar abilene_cost_network.node[10].content_store 	p_hit[10] 	0.094664386675036
scalar abilene_cost_network.node[10].content_store 	hits[10] 	21867
scalar abilene_cost_network.node[10].content_store 	misses[10] 	209128
scalar abilene_cost_network.node[10].content_store 	decision_yes[10] 	961
scalar abilene_cost_network.node[10].content_store 	decision_no[10] 	208167
scalar abilene_cost_network.node[10].content_store 	decision_ratio[10] 	0.0045952717952641
scalar abilene_cost_network.node[10].content_store 	correction_factor[10] 	0.00091785160364391
scalar abilene_cost_network.node[10].content_store 	xi[10] 	1.5
scalar abilene_cost_network.node[11].core_layer 	interests[11] 	153773
scalar abilene_cost_network.node[11].core_layer 	repo_load[11] 	153773
scalar abilene_cost_network.node[11].core_layer 	data[11] 	0
scalar abilene_cost_network.node[11].content_store 	p_hit[11] 	0
scalar abilene_cost_network.node[11].content_store 	hits[11] 	0
scalar abilene_cost_network.node[11].content_store 	misses[11] 	153773
scalar abilene_cost_network.node[11].content_store 	decision_yes[11] 	0
scalar abilene_cost_network.node[11].content_store 	decision_no[11] 	153773
scalar abilene_cost_network.node[11].content_store 	decision_ratio[11] 	0
scalar abilene_cost_network.node[12].core_layer 	interests[12] 	75963
scalar abilene_cost_network.node[12].core_layer 	repo_load[12] 	75963
scalar abilene_cost_network.node[12].core_layer 	data[12] 	0
scalar abilene_cost_network.node[12].content_store 	p_hit[12] 	0
scalar abilene_cost_network.node[12].content_store 	hits[12] 	0
scalar abilene_cost_network.node[12].content_store 	misses[12] 	75963
scalar abilene_cost_network.node[12].content_store 	decision_yes[12] 	0
scalar abilene_cost_network.node[12].content_store 	decision_no[12] 	75963
scalar abilene_cost_network.node[12].content_store 	decision_ratio[12] 	0
scalar abilene_cost_network.node[13].core_layer 	interests[13] 	85518
scalar abilene_cost_network.node[13].core_layer 	repo_load[13] 	85518
scalar abilene_cost_network.node[13].core_layer 	data[13] 	0
scalar abilene_cost_network.node[13].content_store 	p_hit[13] 	0
scalar abilene_cost_network.node[13].content_store 	hits[13] 	0
scalar abilene_cost_network.node[13].content_store 	misses[13] 	85518
scalar abilene_cost_network.node[13].content_store 	decision_yes[13] 	0
scalar abilene_cost_network.node[13].content_store 	decision_no[13] 	85518
scalar abilene_cost_network.node[13].content_store 	decision_ratio[13] 	0
scalar abilene_cost_network.client[3] 	hdistance[3] 	3.4844424420416
scalar abilene_cost_network.client[3] 	downloads[3] 	179784
scalar abilene_cost_network.client[3] 	avg_time[3] 	0
scalar abilene_cost_network.client[3] 	interests_sent[3] 	179784
scalar abilene_cost_network.client[7] 	hdistance[7] 	3.5452047924213
scalar abilene_cost_network.client[7] 	downloads[7] 	179450
scalar abilene_cost_network.client[7] 	avg_time[7] 	0
scalar abilene_cost_network.client[7] 	interests_sent[7] 	179450
scalar abilene_cost_network.client[10] 	hdistance[10] 	2.9509390102159
scalar abilene_cost_network.client[10] 	downloads[10] 	179817
scalar abilene_cost_network.client[10] 	avg_time[10] 	0
scalar abilene_cost_network.client[10] 	interests_sent[10] 	179817
