version 2
run General-29-20140518-02:06:14-15429
attr D costprobprodcorr0.01
attr F nrr
attr R lru
attr a 1
attr configname General
attr csize 1e5
attr ctlg 1e7
attr datetime 20140518-02:06:14
attr experiment General
attr inifile omnetpp.ini
attr iterationvars "$net=one_cache_scenario_3_links, $rep=12, $priceratiovalue=10, $weights=0.333_0.333_0.334, $a=1, $ctlg=1e7, $F=nrr, $ttl=1000, $D=costprobprodcorr0.01, $xi=1, $R=lru, $csize=1e5, $q=0"
attr iterationvars2 "$net=one_cache_scenario_3_links, $rep=12, $priceratiovalue=10, $weights=0.333_0.333_0.334, $a=1, $ctlg=1e7, $F=nrr, $ttl=1000, $D=costprobprodcorr0.01, $xi=1, $R=lru, $csize=1e5, $q=0, $repetition=0"
attr measurement "$net=one_cache_scenario_3_links, $rep=12, $priceratiovalue=10, $weights=0.333_0.333_0.334, $a=1, $ctlg=1e7, $F=nrr, $ttl=1000, $D=costprobprodcorr0.01, $xi=1, $R=lru, $csize=1e5, $q=0"
attr net one_cache_scenario_3_links
attr network networks.${net=one_cache_scenario_3_links}_network
attr priceratiovalue 10
attr processid 15429
attr q 0
attr rep 12
attr repetition 0
attr replication #0
attr resultdir results
attr runnumber 29
attr seedset 12
attr ttl 1000
attr weights 0.333_0.333_0.334
attr xi 1

scalar . 	a 	1
scalar . 	csize 	1e5
scalar . 	ctlg 	1e7
scalar . 	priceratiovalue 	10
scalar . 	q 	0
scalar . 	rep 	12
scalar . 	ttl 	1000
scalar . 	xi 	1
scalar one_cache_scenario_3_links_network.content_distribution 	repo-0 	4
scalar one_cache_scenario_3_links_network.content_distribution 	repo-1 	5
scalar one_cache_scenario_3_links_network.content_distribution 	repo-2 	6
scalar one_cache_scenario_3_links_network.content_distribution 	client-0 	0
scalar one_cache_scenario_3_links_network.content_distribution 	repo-0_card 	3329238
scalar one_cache_scenario_3_links_network.content_distribution 	repo-1_card 	3330911
scalar one_cache_scenario_3_links_network.content_distribution 	repo-2_card 	3339851
scalar one_cache_scenario_3_links_network.statistics 	p_hit 	0.18551971334173
scalar one_cache_scenario_3_links_network.statistics 	interests 	5626530.2857143
scalar one_cache_scenario_3_links_network.statistics 	data 	3055132
scalar one_cache_scenario_3_links_network.statistics 	hdistance 	1.1881208823126
scalar one_cache_scenario_3_links_network.statistics 	avg_time 	0
scalar one_cache_scenario_3_links_network.statistics 	downloads 	17999788
scalar one_cache_scenario_3_links_network.statistics 	total_cost 	23420461
scalar one_cache_scenario_3_links_network.statistics 	total_replicas 	10000000
scalar one_cache_scenario_3_links_network.statistics 	interests_sent 	17999788
scalar one_cache_scenario_3_links_network.node[0].core_layer 	interests[0] 	17999788
scalar one_cache_scenario_3_links_network.node[0].core_layer 	data[0] 	10692962
scalar one_cache_scenario_3_links_network.node[0].core_layer 	repo_int[0] 	10692962
scalar one_cache_scenario_3_links_network.node[0].content_store 	p_hit[0] 	0.40593955884369
scalar one_cache_scenario_3_links_network.node[0].content_store 	hits[0] 	7306826
scalar one_cache_scenario_3_links_network.node[0].content_store 	misses[0] 	10692962
scalar one_cache_scenario_3_links_network.node[0].content_store 	decision_yes[0] 	63377
scalar one_cache_scenario_3_links_network.node[0].content_store 	decision_no[0] 	10629585
scalar one_cache_scenario_3_links_network.node[0].content_store 	decision_ratio[0] 	0.0059269826265164
scalar one_cache_scenario_3_links_network.node[0].content_store 	correction_factor[0] 	0.0027225701061802
scalar one_cache_scenario_3_links_network.node[0].content_store 	xi[0] 	1
scalar one_cache_scenario_3_links_network.node[1].core_layer 	interests[1] 	5754379
scalar one_cache_scenario_3_links_network.node[1].core_layer 	data[1] 	5754379
scalar one_cache_scenario_3_links_network.node[1].content_store 	p_hit[1] 	0
scalar one_cache_scenario_3_links_network.node[1].content_store 	hits[1] 	0
scalar one_cache_scenario_3_links_network.node[1].content_store 	misses[1] 	5754379
scalar one_cache_scenario_3_links_network.node[1].content_store 	decision_yes[1] 	0
scalar one_cache_scenario_3_links_network.node[1].content_store 	decision_no[1] 	5754379
scalar one_cache_scenario_3_links_network.node[1].content_store 	decision_ratio[1] 	0
scalar one_cache_scenario_3_links_network.node[2].core_layer 	interests[2] 	2885041
scalar one_cache_scenario_3_links_network.node[2].core_layer 	data[2] 	2885041
scalar one_cache_scenario_3_links_network.node[2].content_store 	p_hit[2] 	0
scalar one_cache_scenario_3_links_network.node[2].content_store 	hits[2] 	0
scalar one_cache_scenario_3_links_network.node[2].content_store 	misses[2] 	2885041
scalar one_cache_scenario_3_links_network.node[2].content_store 	decision_yes[2] 	0
scalar one_cache_scenario_3_links_network.node[2].content_store 	decision_no[2] 	2885041
scalar one_cache_scenario_3_links_network.node[2].content_store 	decision_ratio[2] 	0
scalar one_cache_scenario_3_links_network.node[3].core_layer 	interests[3] 	2053542
scalar one_cache_scenario_3_links_network.node[3].core_layer 	data[3] 	2053542
scalar one_cache_scenario_3_links_network.node[3].content_store 	p_hit[3] 	0
scalar one_cache_scenario_3_links_network.node[3].content_store 	hits[3] 	0
scalar one_cache_scenario_3_links_network.node[3].content_store 	misses[3] 	2053542
scalar one_cache_scenario_3_links_network.node[3].content_store 	decision_yes[3] 	0
scalar one_cache_scenario_3_links_network.node[3].content_store 	decision_no[3] 	2053542
scalar one_cache_scenario_3_links_network.node[3].content_store 	decision_ratio[3] 	0
scalar one_cache_scenario_3_links_network.node[4].core_layer 	interests[4] 	5754379
scalar one_cache_scenario_3_links_network.node[4].core_layer 	repo_load[4] 	5754379
scalar one_cache_scenario_3_links_network.node[4].core_layer 	data[4] 	0
scalar one_cache_scenario_3_links_network.node[4].content_store 	p_hit[4] 	0
scalar one_cache_scenario_3_links_network.node[4].content_store 	hits[4] 	0
scalar one_cache_scenario_3_links_network.node[4].content_store 	misses[4] 	5754379
scalar one_cache_scenario_3_links_network.node[4].content_store 	decision_yes[4] 	0
scalar one_cache_scenario_3_links_network.node[4].content_store 	decision_no[4] 	5754379
scalar one_cache_scenario_3_links_network.node[4].content_store 	decision_ratio[4] 	0
scalar one_cache_scenario_3_links_network.node[5].core_layer 	interests[5] 	2885041
scalar one_cache_scenario_3_links_network.node[5].core_layer 	repo_load[5] 	2885041
scalar one_cache_scenario_3_links_network.node[5].core_layer 	data[5] 	0
scalar one_cache_scenario_3_links_network.node[5].content_store 	p_hit[5] 	0
scalar one_cache_scenario_3_links_network.node[5].content_store 	hits[5] 	0
scalar one_cache_scenario_3_links_network.node[5].content_store 	misses[5] 	2885041
scalar one_cache_scenario_3_links_network.node[5].content_store 	decision_yes[5] 	0
scalar one_cache_scenario_3_links_network.node[5].content_store 	decision_no[5] 	2885041
scalar one_cache_scenario_3_links_network.node[5].content_store 	decision_ratio[5] 	0
scalar one_cache_scenario_3_links_network.node[6].core_layer 	interests[6] 	2053542
scalar one_cache_scenario_3_links_network.node[6].core_layer 	repo_load[6] 	2053542
scalar one_cache_scenario_3_links_network.node[6].core_layer 	data[6] 	0
scalar one_cache_scenario_3_links_network.node[6].content_store 	p_hit[6] 	0
scalar one_cache_scenario_3_links_network.node[6].content_store 	hits[6] 	0
scalar one_cache_scenario_3_links_network.node[6].content_store 	misses[6] 	2053542
scalar one_cache_scenario_3_links_network.node[6].content_store 	decision_yes[6] 	0
scalar one_cache_scenario_3_links_network.node[6].content_store 	decision_no[6] 	2053542
scalar one_cache_scenario_3_links_network.node[6].content_store 	decision_ratio[6] 	0
scalar one_cache_scenario_3_links_network.client[0] 	hdistance[0] 	1.1881208823126
scalar one_cache_scenario_3_links_network.client[0] 	downloads[0] 	17999788
scalar one_cache_scenario_3_links_network.client[0] 	avg_time[0] 	0
scalar one_cache_scenario_3_links_network.client[0] 	interests_sent[0] 	17999788
