version 2
run General-713-20140502-14:34:32-17200
attr D fix0.01
attr F nrr
attr R lru
attr a 1.2
attr configname General
attr csize 1e3
attr ctlg 1e5
attr datetime 20140502-14:34:32
attr experiment General
attr inifile omnetpp.ini
attr iterationvars "$net=three_caches_scenario_3_links, $rep=5, $priceratiovalue=10, $weights=0.333_0.333_0.334, $a=1.2, $ctlg=1e5, $F=nrr, $ttl=1000, $D=fix0.01, $xi=1, $R=lru, $csize=1e3"
attr iterationvars2 "$net=three_caches_scenario_3_links, $rep=5, $priceratiovalue=10, $weights=0.333_0.333_0.334, $a=1.2, $ctlg=1e5, $F=nrr, $ttl=1000, $D=fix0.01, $xi=1, $R=lru, $csize=1e3, $repetition=0"
attr measurement "$net=three_caches_scenario_3_links, $rep=5, $priceratiovalue=10, $weights=0.333_0.333_0.334, $a=1.2, $ctlg=1e5, $F=nrr, $ttl=1000, $D=fix0.01, $xi=1, $R=lru, $csize=1e3"
attr net three_caches_scenario_3_links
attr network networks.${net=three_caches_scenario_3_links}_network
attr priceratiovalue 10
attr processid 17200
attr rep 5
attr repetition 0
attr replication #0
attr resultdir results
attr runnumber 713
attr seedset 5
attr ttl 1000
attr weights 0.333_0.333_0.334
attr xi 1

scalar . 	a 	1.2
scalar . 	csize 	1e3
scalar . 	ctlg 	1e5
scalar . 	priceratiovalue 	10
scalar . 	rep 	5
scalar . 	ttl 	1000
scalar . 	xi 	1
scalar three_caches_scenario_3_links_network.content_distribution 	repo-0 	4
scalar three_caches_scenario_3_links_network.content_distribution 	repo-1 	5
scalar three_caches_scenario_3_links_network.content_distribution 	repo-2 	6
scalar three_caches_scenario_3_links_network.content_distribution 	client-0 	0
scalar three_caches_scenario_3_links_network.content_distribution 	repo-0_card 	33274
scalar three_caches_scenario_3_links_network.content_distribution 	repo-1_card 	33323
scalar three_caches_scenario_3_links_network.content_distribution 	repo-2_card 	33403
scalar three_caches_scenario_3_links_network.statistics 	p_hit 	0.56910734551716
scalar three_caches_scenario_3_links_network.statistics 	interests 	36504.285714286
scalar three_caches_scenario_3_links_network.statistics 	data 	10750.142857143
scalar three_caches_scenario_3_links_network.statistics 	hdistance 	0.53822685947892
scalar three_caches_scenario_3_links_network.statistics 	avg_time 	0
scalar three_caches_scenario_3_links_network.statistics 	downloads 	180279
scalar three_caches_scenario_3_links_network.statistics 	total_cost 	119763
scalar three_caches_scenario_3_links_network.statistics 	total_replicas 	100000
scalar three_caches_scenario_3_links_network.statistics 	interests_sent 	180279
scalar three_caches_scenario_3_links_network.node[0].core_layer 	interests[0] 	180279
scalar three_caches_scenario_3_links_network.node[0].core_layer 	data[0] 	40396
scalar three_caches_scenario_3_links_network.node[0].core_layer 	repo_int[0] 	34855
scalar three_caches_scenario_3_links_network.node[0].content_store 	p_hit[0] 	0.77592509388226
scalar three_caches_scenario_3_links_network.node[0].content_store 	hits[0] 	139883
scalar three_caches_scenario_3_links_network.node[0].content_store 	misses[0] 	40396
scalar three_caches_scenario_3_links_network.node[0].content_store 	decision_yes[0] 	398
scalar three_caches_scenario_3_links_network.node[0].content_store 	decision_no[0] 	39998
scalar three_caches_scenario_3_links_network.node[1].core_layer 	interests[1] 	13075
scalar three_caches_scenario_3_links_network.node[1].core_layer 	data[1] 	13075
scalar three_caches_scenario_3_links_network.node[1].content_store 	p_hit[1] 	0
scalar three_caches_scenario_3_links_network.node[1].content_store 	hits[1] 	0
scalar three_caches_scenario_3_links_network.node[1].content_store 	misses[1] 	13075
scalar three_caches_scenario_3_links_network.node[1].content_store 	decision_yes[1] 	0
scalar three_caches_scenario_3_links_network.node[1].content_store 	decision_no[1] 	13075
scalar three_caches_scenario_3_links_network.node[2].core_layer 	interests[2] 	13472
scalar three_caches_scenario_3_links_network.node[2].core_layer 	data[2] 	10893
scalar three_caches_scenario_3_links_network.node[2].content_store 	p_hit[2] 	0.19143408551069
scalar three_caches_scenario_3_links_network.node[2].content_store 	hits[2] 	2579
scalar three_caches_scenario_3_links_network.node[2].content_store 	misses[2] 	10893
scalar three_caches_scenario_3_links_network.node[2].content_store 	decision_yes[2] 	130
scalar three_caches_scenario_3_links_network.node[2].content_store 	decision_no[2] 	10763
scalar three_caches_scenario_3_links_network.node[3].core_layer 	interests[3] 	13849
scalar three_caches_scenario_3_links_network.node[3].core_layer 	data[3] 	10887
scalar three_caches_scenario_3_links_network.node[3].content_store 	p_hit[3] 	0.213878258358
scalar three_caches_scenario_3_links_network.node[3].content_store 	hits[3] 	2962
scalar three_caches_scenario_3_links_network.node[3].content_store 	misses[3] 	10887
scalar three_caches_scenario_3_links_network.node[3].content_store 	decision_yes[3] 	127
scalar three_caches_scenario_3_links_network.node[3].content_store 	decision_no[3] 	10760
scalar three_caches_scenario_3_links_network.node[4].core_layer 	interests[4] 	13075
scalar three_caches_scenario_3_links_network.node[4].core_layer 	repo_load[4] 	13075
scalar three_caches_scenario_3_links_network.node[4].core_layer 	data[4] 	0
scalar three_caches_scenario_3_links_network.node[4].content_store 	p_hit[4] 	0
scalar three_caches_scenario_3_links_network.node[4].content_store 	hits[4] 	0
scalar three_caches_scenario_3_links_network.node[4].content_store 	misses[4] 	13075
scalar three_caches_scenario_3_links_network.node[4].content_store 	decision_yes[4] 	0
scalar three_caches_scenario_3_links_network.node[4].content_store 	decision_no[4] 	13075
scalar three_caches_scenario_3_links_network.node[5].core_layer 	interests[5] 	10893
scalar three_caches_scenario_3_links_network.node[5].core_layer 	repo_load[5] 	10893
scalar three_caches_scenario_3_links_network.node[5].core_layer 	data[5] 	0
scalar three_caches_scenario_3_links_network.node[5].content_store 	p_hit[5] 	0
scalar three_caches_scenario_3_links_network.node[5].content_store 	hits[5] 	0
scalar three_caches_scenario_3_links_network.node[5].content_store 	misses[5] 	10893
scalar three_caches_scenario_3_links_network.node[5].content_store 	decision_yes[5] 	0
scalar three_caches_scenario_3_links_network.node[5].content_store 	decision_no[5] 	10893
scalar three_caches_scenario_3_links_network.node[6].core_layer 	interests[6] 	10887
scalar three_caches_scenario_3_links_network.node[6].core_layer 	repo_load[6] 	10887
scalar three_caches_scenario_3_links_network.node[6].core_layer 	data[6] 	0
scalar three_caches_scenario_3_links_network.node[6].content_store 	p_hit[6] 	0
scalar three_caches_scenario_3_links_network.node[6].content_store 	hits[6] 	0
scalar three_caches_scenario_3_links_network.node[6].content_store 	misses[6] 	10887
scalar three_caches_scenario_3_links_network.node[6].content_store 	decision_yes[6] 	0
scalar three_caches_scenario_3_links_network.node[6].content_store 	decision_no[6] 	10887
scalar three_caches_scenario_3_links_network.client[0] 	hdistance[0] 	0.53822685947892
scalar three_caches_scenario_3_links_network.client[0] 	downloads[0] 	180279
scalar three_caches_scenario_3_links_network.client[0] 	avg_time[0] 	0
scalar three_caches_scenario_3_links_network.client[0] 	interests_sent[0] 	180279
