version 2
run General-21-20140425-21:36:36-16454
attr D fix0.01
attr F nrr
attr R lru
attr a 1
attr configname General
attr csize 10
attr ctlg 10^3
attr datetime 20140425-21:36:36
attr experiment General
attr inifile omnetpp.ini
attr iterationvars "$net=one_cache_scenario, $rep=2, $priceratiovalue=10, $a=1, $ctlg=10^3, $F=nrr, $ttl=1000, $D=fix0.01, $R=lru, $csize=10, $tempo=4800"
attr iterationvars2 "$net=one_cache_scenario, $rep=2, $priceratiovalue=10, $a=1, $ctlg=10^3, $F=nrr, $ttl=1000, $D=fix0.01, $R=lru, $csize=10, $tempo=4800, $repetition=0"
attr measurement "$net=one_cache_scenario, $rep=2, $priceratiovalue=10, $a=1, $ctlg=10^3, $F=nrr, $ttl=1000, $D=fix0.01, $R=lru, $csize=10, $tempo=4800"
attr net one_cache_scenario
attr network networks.${net=one_cache_scenario}_network
attr priceratiovalue 10
attr processid 16454
attr rep 2
attr repetition 0
attr replication #0
attr resultdir results
attr runnumber 21
attr seedset 2
attr tempo 4800
attr ttl 1000

scalar . 	a 	1
scalar . 	csize 	10
scalar . 	priceratiovalue 	10
scalar . 	rep 	2
scalar . 	tempo 	4800
scalar . 	ttl 	1000
scalar one_cache_scenario_network.content_distribution 	repo-0 	3
scalar one_cache_scenario_network.content_distribution 	repo-1 	4
scalar one_cache_scenario_network.content_distribution 	client-0 	0
scalar one_cache_scenario_network.content_distribution 	repo-0_card 	490
scalar one_cache_scenario_network.content_distribution 	repo-1_card 	510
scalar one_cache_scenario_network.statistics 	p_hit 	0.14631670194609
scalar one_cache_scenario_network.statistics 	interests 	222414.8
scalar one_cache_scenario_network.statistics 	data 	126581.2
scalar one_cache_scenario_network.statistics 	hdistance 	1.3208436289568
scalar one_cache_scenario_network.statistics 	avg_time 	0
scalar one_cache_scenario_network.statistics 	downloads 	479168
scalar one_cache_scenario_network.statistics 	total_cost 	155910
scalar one_cache_scenario_network.statistics 	interests_sent 	479168
scalar one_cache_scenario_network.node[0].core_layer 	interests[0] 	479168
scalar one_cache_scenario_network.node[0].core_layer 	data[0] 	316453
scalar one_cache_scenario_network.node[0].core_layer 	repo_int[0] 	316453
scalar one_cache_scenario_network.node[0].content_store 	p_hit[0] 	0.33957818552157
scalar one_cache_scenario_network.node[0].content_store 	hits[0] 	162715
scalar one_cache_scenario_network.node[0].content_store 	misses[0] 	316453
scalar one_cache_scenario_network.node[0].content_store 	decision_yes[0] 	3240
scalar one_cache_scenario_network.node[0].content_store 	decision_no[0] 	313213
scalar one_cache_scenario_network.node[1].core_layer 	interests[1] 	161057
scalar one_cache_scenario_network.node[1].core_layer 	data[1] 	161057
scalar one_cache_scenario_network.node[1].content_store 	p_hit[1] 	0
scalar one_cache_scenario_network.node[1].content_store 	hits[1] 	0
scalar one_cache_scenario_network.node[1].content_store 	misses[1] 	161057
scalar one_cache_scenario_network.node[1].content_store 	decision_yes[1] 	0
scalar one_cache_scenario_network.node[1].content_store 	decision_no[1] 	161057
scalar one_cache_scenario_network.node[2].core_layer 	interests[2] 	155396
scalar one_cache_scenario_network.node[2].core_layer 	data[2] 	155396
scalar one_cache_scenario_network.node[2].content_store 	p_hit[2] 	0
scalar one_cache_scenario_network.node[2].content_store 	hits[2] 	0
scalar one_cache_scenario_network.node[2].content_store 	misses[2] 	155396
scalar one_cache_scenario_network.node[2].content_store 	decision_yes[2] 	0
scalar one_cache_scenario_network.node[2].content_store 	decision_no[2] 	155396
scalar one_cache_scenario_network.node[3].core_layer 	interests[3] 	161057
scalar one_cache_scenario_network.node[3].core_layer 	repo_load[3] 	161057
scalar one_cache_scenario_network.node[3].core_layer 	data[3] 	0
scalar one_cache_scenario_network.node[3].content_store 	p_hit[3] 	0
scalar one_cache_scenario_network.node[3].content_store 	hits[3] 	0
scalar one_cache_scenario_network.node[3].content_store 	misses[3] 	161057
scalar one_cache_scenario_network.node[3].content_store 	decision_yes[3] 	0
scalar one_cache_scenario_network.node[3].content_store 	decision_no[3] 	161057
scalar one_cache_scenario_network.node[4].core_layer 	interests[4] 	155396
scalar one_cache_scenario_network.node[4].core_layer 	repo_load[4] 	155396
scalar one_cache_scenario_network.node[4].core_layer 	data[4] 	0
scalar one_cache_scenario_network.node[4].content_store 	p_hit[4] 	0
scalar one_cache_scenario_network.node[4].content_store 	hits[4] 	0
scalar one_cache_scenario_network.node[4].content_store 	misses[4] 	155396
scalar one_cache_scenario_network.node[4].content_store 	decision_yes[4] 	0
scalar one_cache_scenario_network.node[4].content_store 	decision_no[4] 	155396
scalar one_cache_scenario_network.client[0] 	hdistance[0] 	1.3208436289568
scalar one_cache_scenario_network.client[0] 	downloads[0] 	479168
scalar one_cache_scenario_network.client[0] 	avg_time[0] 	0
scalar one_cache_scenario_network.client[0] 	interests_sent[0] 	479168
