version 2
run General-3571-20140423-20:02:19-30621
attr D fix0.01
attr F nrr
attr R lru
attr a 0
attr configname General
attr csize 2
attr ctlg 10^3
attr datetime 20140423-20:02:19
attr experiment General
attr inifile omnetpp.ini
attr iterationvars "$net=simple_scenario, $rep=10, $priceratiovalue=10, $a=0, $ctlg=10^3, $F=nrr, $ttl=1000, $D=fix0.01, $R=lru, $csize=2"
attr iterationvars2 "$net=simple_scenario, $rep=10, $priceratiovalue=10, $a=0, $ctlg=10^3, $F=nrr, $ttl=1000, $D=fix0.01, $R=lru, $csize=2, $repetition=0"
attr measurement "$net=simple_scenario, $rep=10, $priceratiovalue=10, $a=0, $ctlg=10^3, $F=nrr, $ttl=1000, $D=fix0.01, $R=lru, $csize=2"
attr net simple_scenario
attr network networks.${net=simple_scenario}_network
attr priceratiovalue 10
attr processid 30621
attr rep 10
attr repetition 0
attr replication #0
attr resultdir results
attr runnumber 3571
attr seedset 10
attr ttl 1000

scalar . 	a 	0
scalar . 	csize 	2
scalar . 	priceratiovalue 	10
scalar . 	rep 	10
scalar . 	ttl 	1000
scalar simple_scenario_network.content_distribution 	repo-0 	3
scalar simple_scenario_network.content_distribution 	repo-1 	4
scalar simple_scenario_network.content_distribution 	client-0 	0
scalar simple_scenario_network.content_distribution 	repo-0_card 	519
scalar simple_scenario_network.content_distribution 	repo-1_card 	481
scalar simple_scenario_network.statistics 	p_hit 	0.0019256219238376
scalar simple_scenario_network.statistics 	interests 	107601.6
scalar simple_scenario_network.statistics 	data 	71641.8
scalar simple_scenario_network.statistics 	hdistance 	2.9865127169784
scalar simple_scenario_network.statistics 	avg_time 	0.001999780611
scalar simple_scenario_network.statistics 	downloads 	179799
scalar simple_scenario_network.statistics 	total_cost 	86670
scalar simple_scenario_network.node[0].core_layer 	interests[0] 	179799
scalar simple_scenario_network.node[0].core_layer 	data[0] 	179446
scalar simple_scenario_network.node[0].core_layer 	repo_int[0] 	178763
scalar simple_scenario_network.node[0].content_store 	p_hit[0] 	0.0019633034666489
scalar simple_scenario_network.node[0].content_store 	hits[0] 	353
scalar simple_scenario_network.node[0].content_store 	misses[0] 	179446
scalar simple_scenario_network.node[1].core_layer 	interests[1] 	93033
scalar simple_scenario_network.node[1].core_layer 	data[1] 	92694
scalar simple_scenario_network.node[1].content_store 	p_hit[1] 	0.0036438683047951
scalar simple_scenario_network.node[1].content_store 	hits[1] 	339
scalar simple_scenario_network.node[1].content_store 	misses[1] 	92694
scalar simple_scenario_network.node[2].core_layer 	interests[2] 	86413
scalar simple_scenario_network.node[2].core_layer 	data[2] 	86069
scalar simple_scenario_network.node[2].content_store 	p_hit[2] 	0.0039808825061044
scalar simple_scenario_network.node[2].content_store 	hits[2] 	344
scalar simple_scenario_network.node[2].content_store 	misses[2] 	86069
scalar simple_scenario_network.node[3].core_layer 	interests[3] 	92694
scalar simple_scenario_network.node[3].core_layer 	repo_load[3] 	92694
scalar simple_scenario_network.node[3].core_layer 	data[3] 	0
scalar simple_scenario_network.node[3].content_store 	p_hit[3] 	0
scalar simple_scenario_network.node[3].content_store 	hits[3] 	0
scalar simple_scenario_network.node[3].content_store 	misses[3] 	92694
scalar simple_scenario_network.node[4].core_layer 	interests[4] 	86069
scalar simple_scenario_network.node[4].core_layer 	repo_load[4] 	86069
scalar simple_scenario_network.node[4].core_layer 	data[4] 	0
scalar simple_scenario_network.node[4].content_store 	p_hit[4] 	0
scalar simple_scenario_network.node[4].content_store 	hits[4] 	0
scalar simple_scenario_network.node[4].content_store 	misses[4] 	86069
scalar simple_scenario_network.client[0] 	hdistance[0] 	2.9865127169784
scalar simple_scenario_network.client[0] 	downloads[0] 	179799
scalar simple_scenario_network.client[0] 	avg_time[0] 	0.001999780611
