version 2
run General-691-20140423-18:49:26-26506
attr D fix0.01
attr F nrr
attr R lru
attr a 0
attr configname General
attr csize 2
attr ctlg 10^3
attr datetime 20140423-18:49:26
attr experiment General
attr inifile omnetpp.ini
attr iterationvars "$net=simple_scenario, $rep=2, $priceratiovalue=10, $a=0, $ctlg=10^3, $F=nrr, $ttl=1000, $D=fix0.01, $R=lru, $csize=2"
attr iterationvars2 "$net=simple_scenario, $rep=2, $priceratiovalue=10, $a=0, $ctlg=10^3, $F=nrr, $ttl=1000, $D=fix0.01, $R=lru, $csize=2, $repetition=0"
attr measurement "$net=simple_scenario, $rep=2, $priceratiovalue=10, $a=0, $ctlg=10^3, $F=nrr, $ttl=1000, $D=fix0.01, $R=lru, $csize=2"
attr net simple_scenario
attr network networks.${net=simple_scenario}_network
attr priceratiovalue 10
attr processid 26506
attr rep 2
attr repetition 0
attr replication #0
attr resultdir results
attr runnumber 691
attr seedset 2
attr ttl 1000

scalar . 	a 	0
scalar . 	csize 	2
scalar . 	priceratiovalue 	10
scalar . 	rep 	2
scalar . 	ttl 	1000
scalar simple_scenario_network.content_distribution 	repo-0 	3
scalar simple_scenario_network.content_distribution 	repo-1 	4
scalar simple_scenario_network.content_distribution 	client-0 	0
scalar simple_scenario_network.content_distribution 	repo-0_card 	504
scalar simple_scenario_network.content_distribution 	repo-1_card 	496
scalar simple_scenario_network.statistics 	p_hit 	0.0018822603459349
scalar simple_scenario_network.statistics 	interests 	107742.8
scalar simple_scenario_network.statistics 	data 	71738
scalar simple_scenario_network.statistics 	hdistance 	2.9868239058342
scalar simple_scenario_network.statistics 	avg_time 	0.001999754536
scalar simple_scenario_network.statistics 	downloads 	180023
scalar simple_scenario_network.statistics 	total_cost 	88855
scalar simple_scenario_network.node[0].core_layer 	interests[0] 	180024
scalar simple_scenario_network.node[0].core_layer 	data[0] 	179680
scalar simple_scenario_network.node[0].core_layer 	repo_int[0] 	179010
scalar simple_scenario_network.node[0].content_store 	p_hit[0] 	0.0019108563302671
scalar simple_scenario_network.node[0].content_store 	hits[0] 	344
scalar simple_scenario_network.node[0].content_store 	misses[0] 	179680
scalar simple_scenario_network.node[1].core_layer 	interests[1] 	90640
scalar simple_scenario_network.node[1].core_layer 	data[1] 	90298
scalar simple_scenario_network.node[1].content_store 	p_hit[1] 	0.0037731685789938
scalar simple_scenario_network.node[1].content_store 	hits[1] 	342
scalar simple_scenario_network.node[1].content_store 	misses[1] 	90298
scalar simple_scenario_network.node[2].core_layer 	interests[2] 	89040
scalar simple_scenario_network.node[2].core_layer 	data[2] 	88712
scalar simple_scenario_network.node[2].content_store 	p_hit[2] 	0.0036837376460018
scalar simple_scenario_network.node[2].content_store 	hits[2] 	328
scalar simple_scenario_network.node[2].content_store 	misses[2] 	88712
scalar simple_scenario_network.node[3].core_layer 	interests[3] 	90298
scalar simple_scenario_network.node[3].core_layer 	repo_load[3] 	90298
scalar simple_scenario_network.node[3].core_layer 	data[3] 	0
scalar simple_scenario_network.node[3].content_store 	p_hit[3] 	0
scalar simple_scenario_network.node[3].content_store 	hits[3] 	0
scalar simple_scenario_network.node[3].content_store 	misses[3] 	90298
scalar simple_scenario_network.node[4].core_layer 	interests[4] 	88712
scalar simple_scenario_network.node[4].core_layer 	repo_load[4] 	88712
scalar simple_scenario_network.node[4].core_layer 	data[4] 	0
scalar simple_scenario_network.node[4].content_store 	p_hit[4] 	0
scalar simple_scenario_network.node[4].content_store 	hits[4] 	0
scalar simple_scenario_network.node[4].content_store 	misses[4] 	88712
scalar simple_scenario_network.client[0] 	hdistance[0] 	2.9868239058342
scalar simple_scenario_network.client[0] 	downloads[0] 	180023
scalar simple_scenario_network.client[0] 	avg_time[0] 	0.001999754536
