version 2
run General-5-20140618-15:57:55-16893
attr D fix0.0001
attr F spr
attr R lru
attr a 1
attr configname General
attr csize 1e3
attr ctlg 1e5
attr datetime 20140618-15:57:55
attr experiment General
attr inifile omnetpp.ini
attr iterationvars "$net=abilene_cost, $rep=1, $priceratiovalue=10, $weights=0.333_0.333_0.334, $lambda=100, $a=1, $ctlg=1e5, $F=spr, $ttl=1000, $D=fix0.0001, $xi=1, $R=lru, $csize=1e3, $pricebits=0, $mytime=1800"
attr iterationvars2 "$net=abilene_cost, $rep=1, $priceratiovalue=10, $weights=0.333_0.333_0.334, $lambda=100, $a=1, $ctlg=1e5, $F=spr, $ttl=1000, $D=fix0.0001, $xi=1, $R=lru, $csize=1e3, $pricebits=0, $mytime=1800, $repetition=0"
attr lambda 100
attr measurement "$net=abilene_cost, $rep=1, $priceratiovalue=10, $weights=0.333_0.333_0.334, $lambda=100, $a=1, $ctlg=1e5, $F=spr, $ttl=1000, $D=fix0.0001, $xi=1, $R=lru, $csize=1e3, $pricebits=0, $mytime=1800"
attr mytime 1800
attr net abilene_cost
attr network networks.${net=abilene_cost}_network
attr pricebits 0
attr priceratiovalue 10
attr processid 16893
attr rep 1
attr repetition 0
attr replication #0
attr resultdir results
attr runnumber 5
attr seedset 1
attr ttl 1000
attr weights 0.333_0.333_0.334
attr xi 1

scalar . 	a 	1
scalar . 	csize 	1e3
scalar . 	ctlg 	1e5
scalar . 	lambda 	100
scalar . 	mytime 	1800
scalar . 	pricebits 	0
scalar . 	priceratiovalue 	10
scalar . 	rep 	1
scalar . 	ttl 	1000
scalar . 	xi 	1
scalar abilene_cost_network.content_distribution 	repo-0 	11
scalar abilene_cost_network.content_distribution 	repo-1 	12
scalar abilene_cost_network.content_distribution 	repo-2 	13
scalar abilene_cost_network.content_distribution 	client-0 	3
scalar abilene_cost_network.content_distribution 	client-1 	7
scalar abilene_cost_network.content_distribution 	client-2 	10
scalar abilene_cost_network.content_distribution 	repo-0_card 	33396
scalar abilene_cost_network.content_distribution 	repo-1_card 	33039
scalar abilene_cost_network.content_distribution 	repo-2_card 	33565
scalar abilene_cost_network.statistics 	repo_popularity[0] 	0.28686251265602
scalar abilene_cost_network.statistics 	repo_popularity[1] 	0.2886063426465
scalar abilene_cost_network.statistics 	repo_popularity[2] 	0.42453114469748
scalar abilene_cost_network.statistics 	stabilization_time 	36060
scalar abilene_cost_network.node[0].face$o[3].channel 	price[0] 	0
scalar abilene_cost_network.node[0].face$o[3].channel 	represented_price[0] 	0
scalar abilene_cost_network.node[5].face$o[3].channel 	price[5] 	0
scalar abilene_cost_network.node[5].face$o[3].channel 	represented_price[5] 	0
scalar abilene_cost_network.node[9].face$o[3].channel 	price[9] 	0
scalar abilene_cost_network.node[9].face$o[3].channel 	represented_price[9] 	0
scalar abilene_cost_network.node[11].face$o[1].channel 	price[11] 	0
scalar abilene_cost_network.node[11].face$o[1].channel 	represented_price[11] 	0
scalar abilene_cost_network.node[12].face$o[1].channel 	price[12] 	1
scalar abilene_cost_network.node[12].face$o[1].channel 	represented_price[12] 	1
scalar abilene_cost_network.node[13].face$o[1].channel 	price[13] 	10
scalar abilene_cost_network.node[13].face$o[1].channel 	represented_price[13] 	10
scalar abilene_cost_network.statistics 	p_hit 	0.16797856836744
scalar abilene_cost_network.statistics 	interests 	114836.92857143
scalar abilene_cost_network.statistics 	data 	76333.285714286
scalar abilene_cost_network.statistics 	hdistance 	2.4815591822618
scalar abilene_cost_network.statistics 	avg_time 	0
scalar abilene_cost_network.statistics 	downloads 	539051
scalar abilene_cost_network.statistics 	total_cost 	1003644
scalar abilene_cost_network.statistics 	total_replicas 	100000
scalar abilene_cost_network.statistics 	inner_hit 	0.50099526760919
scalar abilene_cost_network.statistics 	interests_sent 	539051
scalar abilene_cost_network.node[0].core_layer 	interests[0] 	100118
scalar abilene_cost_network.node[0].core_layer 	data[0] 	90744
scalar abilene_cost_network.node[0].core_layer 	repo_int[0] 	268989
scalar abilene_cost_network.node[0].content_store 	p_hit[0] 	0.09362951716974
scalar abilene_cost_network.node[0].content_store 	hits[0] 	9374
scalar abilene_cost_network.node[0].content_store 	misses[0] 	90744
scalar abilene_cost_network.node[0].content_store 	decision_yes[0] 	10
scalar abilene_cost_network.node[0].content_store 	decision_no[0] 	90734
scalar abilene_cost_network.node[0].content_store 	decision_ratio[0] 	0.00011020012342414
scalar abilene_cost_network.node[1].core_layer 	interests[1] 	72190
scalar abilene_cost_network.node[1].core_layer 	data[1] 	67701
scalar abilene_cost_network.node[1].content_store 	p_hit[1] 	0.062183127857044
scalar abilene_cost_network.node[1].content_store 	hits[1] 	4489
scalar abilene_cost_network.node[1].content_store 	misses[1] 	67701
scalar abilene_cost_network.node[1].content_store 	decision_yes[1] 	6
scalar abilene_cost_network.node[1].content_store 	decision_no[1] 	67695
scalar abilene_cost_network.node[1].content_store 	decision_ratio[1] 	8.8624983382816e-05
scalar abilene_cost_network.node[2].core_layer 	interests[2] 	73788
scalar abilene_cost_network.node[2].core_layer 	data[2] 	67576
scalar abilene_cost_network.node[2].content_store 	p_hit[2] 	0.084187130698759
scalar abilene_cost_network.node[2].content_store 	hits[2] 	6212
scalar abilene_cost_network.node[2].content_store 	misses[2] 	67576
scalar abilene_cost_network.node[2].content_store 	decision_yes[2] 	5
scalar abilene_cost_network.node[2].content_store 	decision_no[2] 	67571
scalar abilene_cost_network.node[2].content_store 	decision_ratio[2] 	7.3990765952409e-05
scalar abilene_cost_network.node[3].core_layer 	interests[3] 	212518
scalar abilene_cost_network.node[3].core_layer 	data[3] 	144945
scalar abilene_cost_network.node[3].content_store 	p_hit[3] 	0.31796365484335
scalar abilene_cost_network.node[3].content_store 	hits[3] 	67573
scalar abilene_cost_network.node[3].content_store 	misses[3] 	144945
scalar abilene_cost_network.node[3].content_store 	decision_yes[3] 	11
scalar abilene_cost_network.node[3].content_store 	decision_no[3] 	144934
scalar abilene_cost_network.node[3].content_store 	decision_ratio[3] 	7.5890855151954e-05
scalar abilene_cost_network.node[4].core_layer 	interests[4] 	68171
scalar abilene_cost_network.node[4].core_layer 	data[4] 	60711
scalar abilene_cost_network.node[4].content_store 	p_hit[4] 	0.10943069633715
scalar abilene_cost_network.node[4].content_store 	hits[4] 	7460
scalar abilene_cost_network.node[4].content_store 	misses[4] 	60711
scalar abilene_cost_network.node[4].content_store 	decision_yes[4] 	1
scalar abilene_cost_network.node[4].content_store 	decision_no[4] 	60710
scalar abilene_cost_network.node[4].content_store 	decision_ratio[4] 	1.6471479633015e-05
scalar abilene_cost_network.node[5].core_layer 	interests[5] 	95010
scalar abilene_cost_network.node[5].core_layer 	data[5] 	86534
scalar abilene_cost_network.node[5].content_store 	p_hit[5] 	0.089211661930323
scalar abilene_cost_network.node[5].content_store 	hits[5] 	8476
scalar abilene_cost_network.node[5].content_store 	misses[5] 	86534
scalar abilene_cost_network.node[5].content_store 	decision_yes[5] 	6
scalar abilene_cost_network.node[5].content_store 	decision_no[5] 	86528
scalar abilene_cost_network.node[5].content_store 	decision_ratio[5] 	6.9336908036148e-05
scalar abilene_cost_network.node[6].core_layer 	interests[6] 	36956
scalar abilene_cost_network.node[6].core_layer 	data[6] 	34299
scalar abilene_cost_network.node[6].content_store 	p_hit[6] 	0.071896309124364
scalar abilene_cost_network.node[6].content_store 	hits[6] 	2657
scalar abilene_cost_network.node[6].content_store 	misses[6] 	34299
scalar abilene_cost_network.node[6].content_store 	decision_yes[6] 	0
scalar abilene_cost_network.node[6].content_store 	decision_no[6] 	34299
scalar abilene_cost_network.node[6].content_store 	decision_ratio[6] 	0
scalar abilene_cost_network.node[7].core_layer 	interests[7] 	217476
scalar abilene_cost_network.node[7].core_layer 	data[7] 	148288
scalar abilene_cost_network.node[7].content_store 	p_hit[7] 	0.31814085232393
scalar abilene_cost_network.node[7].content_store 	hits[7] 	69188
scalar abilene_cost_network.node[7].content_store 	misses[7] 	148288
scalar abilene_cost_network.node[7].content_store 	decision_yes[7] 	21
scalar abilene_cost_network.node[7].content_store 	decision_no[7] 	148267
scalar abilene_cost_network.node[7].content_store 	decision_ratio[7] 	0.0001416163141994
scalar abilene_cost_network.node[8].core_layer 	interests[8] 	111332
scalar abilene_cost_network.node[8].core_layer 	data[8] 	99112
scalar abilene_cost_network.node[8].content_store 	p_hit[8] 	0.10976179355441
scalar abilene_cost_network.node[8].content_store 	hits[8] 	12220
scalar abilene_cost_network.node[8].content_store 	misses[8] 	99112
scalar abilene_cost_network.node[8].content_store 	decision_yes[8] 	8
scalar abilene_cost_network.node[8].content_store 	decision_no[8] 	99104
scalar abilene_cost_network.node[8].content_store 	decision_ratio[8] 	8.0716764872064e-05
scalar abilene_cost_network.node[9].core_layer 	interests[9] 	137611
scalar abilene_cost_network.node[9].core_layer 	data[9] 	125452
scalar abilene_cost_network.node[9].content_store 	p_hit[9] 	0.088357762097507
scalar abilene_cost_network.node[9].content_store 	hits[9] 	12159
scalar abilene_cost_network.node[9].content_store 	misses[9] 	125452
scalar abilene_cost_network.node[9].content_store 	decision_yes[9] 	9
scalar abilene_cost_network.node[9].content_store 	decision_no[9] 	125443
scalar abilene_cost_network.node[9].content_store 	decision_ratio[9] 	7.1740586040876e-05
scalar abilene_cost_network.node[10].core_layer 	interests[10] 	213558
scalar abilene_cost_network.node[10].core_layer 	data[10] 	143304
scalar abilene_cost_network.node[10].content_store 	p_hit[10] 	0.32896917933301
scalar abilene_cost_network.node[10].content_store 	hits[10] 	70254
scalar abilene_cost_network.node[10].content_store 	misses[10] 	143304
scalar abilene_cost_network.node[10].content_store 	decision_yes[10] 	17
scalar abilene_cost_network.node[10].content_store 	decision_no[10] 	143287
scalar abilene_cost_network.node[10].content_store 	decision_ratio[10] 	0.00011862892871099
scalar abilene_cost_network.node[11].core_layer 	interests[11] 	90744
scalar abilene_cost_network.node[11].core_layer 	repo_load[11] 	90744
scalar abilene_cost_network.node[11].core_layer 	data[11] 	0
scalar abilene_cost_network.node[11].content_store 	p_hit[11] 	0
scalar abilene_cost_network.node[11].content_store 	hits[11] 	0
scalar abilene_cost_network.node[11].content_store 	misses[11] 	90744
scalar abilene_cost_network.node[11].content_store 	decision_yes[11] 	0
scalar abilene_cost_network.node[11].content_store 	decision_no[11] 	90744
scalar abilene_cost_network.node[11].content_store 	decision_ratio[11] 	0
scalar abilene_cost_network.node[12].core_layer 	interests[12] 	86534
scalar abilene_cost_network.node[12].core_layer 	repo_load[12] 	86534
scalar abilene_cost_network.node[12].core_layer 	data[12] 	0
scalar abilene_cost_network.node[12].content_store 	p_hit[12] 	0
scalar abilene_cost_network.node[12].content_store 	hits[12] 	0
scalar abilene_cost_network.node[12].content_store 	misses[12] 	86534
scalar abilene_cost_network.node[12].content_store 	decision_yes[12] 	0
scalar abilene_cost_network.node[12].content_store 	decision_no[12] 	86534
scalar abilene_cost_network.node[12].content_store 	decision_ratio[12] 	0
scalar abilene_cost_network.node[13].core_layer 	interests[13] 	91711
scalar abilene_cost_network.node[13].core_layer 	repo_load[13] 	91711
scalar abilene_cost_network.node[13].core_layer 	data[13] 	0
scalar abilene_cost_network.node[13].content_store 	p_hit[13] 	0
scalar abilene_cost_network.node[13].content_store 	hits[13] 	0
scalar abilene_cost_network.node[13].content_store 	misses[13] 	91711
scalar abilene_cost_network.node[13].content_store 	decision_yes[13] 	0
scalar abilene_cost_network.node[13].content_store 	decision_no[13] 	91711
scalar abilene_cost_network.node[13].content_store 	decision_ratio[13] 	0
scalar abilene_cost_network.client[3] 	hdistance[3] 	2.5387298091043
scalar abilene_cost_network.client[3] 	downloads[3] 	179784
scalar abilene_cost_network.client[3] 	avg_time[3] 	0
scalar abilene_cost_network.client[3] 	interests_sent[3] 	179784
scalar abilene_cost_network.client[7] 	hdistance[7] 	2.5634995820563
scalar abilene_cost_network.client[7] 	downloads[7] 	179450
scalar abilene_cost_network.client[7] 	avg_time[7] 	0
scalar abilene_cost_network.client[7] 	interests_sent[7] 	179450
scalar abilene_cost_network.client[10] 	hdistance[10] 	2.3424481556248
scalar abilene_cost_network.client[10] 	downloads[10] 	179817
scalar abilene_cost_network.client[10] 	avg_time[10] 	0
scalar abilene_cost_network.client[10] 	interests_sent[10] 	179817
