version 2
run General-0-20150615-16:42:43-31069
attr D lce
attr F spr
attr R lru
attr a 1
attr configname General
attr datetime 20150615-16:42:43
attr experiment General
attr inifile omnetpp.ini
attr iterationvars "$net=abilene, $rep=0, $a=1, $F=spr, $ttl=1000, $D=lce, $R=lru, $window=60, $variance=0.05, $mytime=1800"
attr iterationvars2 "$net=abilene, $rep=0, $a=1, $F=spr, $ttl=1000, $D=lce, $R=lru, $window=60, $variance=0.05, $mytime=1800, $repetition=0"
attr measurement "$net=abilene, $rep=0, $a=1, $F=spr, $ttl=1000, $D=lce, $R=lru, $window=60, $variance=0.05, $mytime=1800"
attr mytime 1800
attr net abilene
attr network networks.${net=abilene}_network
attr processid 31069
attr rep 0
attr repetition 0
attr replication #0
attr resultdir results
attr runnumber 0
attr seedset 0
attr ttl 1000
attr variance 0.05
attr window 60

scalar . 	a 	1
scalar . 	mytime 	1800
scalar . 	rep 	0
scalar . 	ttl 	1000
scalar . 	variance 	0.05
scalar . 	window 	60
scalar abilene_network.content_distribution 	repo-0 	5
scalar abilene_network.content_distribution 	client-0 	8
scalar abilene_network.content_distribution 	client-1 	9
scalar abilene_network.content_distribution 	client-2 	5
scalar abilene_network.content_distribution 	client-3 	0
scalar abilene_network.content_distribution 	client-4 	1
scalar abilene_network.content_distribution 	client-5 	7
scalar abilene_network.content_distribution 	client-6 	6
scalar abilene_network.content_distribution 	client-7 	2
scalar abilene_network.content_distribution 	client-8 	4
scalar abilene_network.content_distribution 	client-9 	10
scalar abilene_network.content_distribution 	client-10 	3
scalar abilene_network.content_distribution 	repo-0_card 	1000
scalar abilene_network.content_distribution 	repo-0_price 	0
scalar abilene_network.statistics 	p_hit 	0.082200090996411
scalar abilene_network.statistics 	interests 	5394.8181818182
scalar abilene_network.statistics 	data 	3600.9090909091
scalar abilene_network.statistics 	hdistance 	2.8512529263657
scalar abilene_network.statistics 	avg_time 	0.011694022015
scalar abilene_network.statistics 	downloads 	19399
scalar abilene_network.statistics 	total_cost 	0
scalar abilene_network.statistics 	total_replicas 	1000
scalar abilene_network.statistics 	inner_hit 	0.27485952884169
scalar abilene_network.statistics 	interests_sent 	19716
scalar abilene_network.node[0].core_layer 	interests[0] 	1781
scalar abilene_network.node[0].core_layer 	data[0] 	1411
scalar abilene_network.node[0].core_layer 	megabytes_sent[face$o[0]->client[0]] 	0
scalar abilene_network.node[0].core_layer 	megabytes_sent[face$o[1]->node[1]] 	0
scalar abilene_network.node[0].core_layer 	megabytes_sent[face$o[2]->node[10]] 	0
scalar abilene_network.node[0].content_store 	p_hit[0] 	0.18248175182482
scalar abilene_network.node[0].content_store 	hits[0] 	325
scalar abilene_network.node[0].content_store 	misses[0] 	1456
scalar abilene_network.node[0].content_store 	decision_yes[0] 	1411
scalar abilene_network.node[0].content_store 	decision_no[0] 	0
scalar abilene_network.node[0].content_store 	decision_ratio[0] 	1
scalar abilene_network.node[1].core_layer 	interests[1] 	4607
scalar abilene_network.node[1].core_layer 	data[1] 	3934
scalar abilene_network.node[1].core_layer 	megabytes_sent[face$o[0]->client[1]] 	0
scalar abilene_network.node[1].core_layer 	megabytes_sent[face$o[1]->node[0]] 	0
scalar abilene_network.node[1].core_layer 	megabytes_sent[face$o[2]->node[10]] 	0
scalar abilene_network.node[1].core_layer 	megabytes_sent[face$o[3]->node[2]] 	0
scalar abilene_network.node[1].content_store 	p_hit[1] 	0.11156935098763
scalar abilene_network.node[1].content_store 	hits[1] 	514
scalar abilene_network.node[1].content_store 	misses[1] 	4093
scalar abilene_network.node[1].content_store 	decision_yes[1] 	3934
scalar abilene_network.node[1].content_store 	decision_no[1] 	0
scalar abilene_network.node[1].content_store 	decision_ratio[1] 	1
scalar abilene_network.node[2].core_layer 	interests[2] 	5716
scalar abilene_network.node[2].core_layer 	data[2] 	5176
scalar abilene_network.node[2].core_layer 	megabytes_sent[face$o[0]->client[2]] 	0
scalar abilene_network.node[2].core_layer 	megabytes_sent[face$o[1]->node[1]] 	0
scalar abilene_network.node[2].core_layer 	megabytes_sent[face$o[2]->node[3]] 	0
scalar abilene_network.node[2].core_layer 	megabytes_sent[face$o[3]->node[8]] 	0
scalar abilene_network.node[2].content_store 	p_hit[2] 	0.070853743876837
scalar abilene_network.node[2].content_store 	hits[2] 	405
scalar abilene_network.node[2].content_store 	misses[2] 	5311
scalar abilene_network.node[2].content_store 	decision_yes[2] 	5176
scalar abilene_network.node[2].content_store 	decision_no[2] 	0
scalar abilene_network.node[2].content_store 	decision_ratio[2] 	1
scalar abilene_network.node[3].core_layer 	interests[3] 	6975
scalar abilene_network.node[3].core_layer 	data[3] 	6467
scalar abilene_network.node[3].core_layer 	megabytes_sent[face$o[0]->client[3]] 	0
scalar abilene_network.node[3].core_layer 	megabytes_sent[face$o[1]->node[2]] 	0
scalar abilene_network.node[3].core_layer 	megabytes_sent[face$o[2]->node[4]] 	0
scalar abilene_network.node[3].core_layer 	megabytes_sent[face$o[3]->node[7]] 	0
scalar abilene_network.node[3].content_store 	p_hit[3] 	0.055913978494624
scalar abilene_network.node[3].content_store 	hits[3] 	390
scalar abilene_network.node[3].content_store 	misses[3] 	6585
scalar abilene_network.node[3].content_store 	decision_yes[3] 	6467
scalar abilene_network.node[3].content_store 	decision_no[3] 	0
scalar abilene_network.node[3].content_store 	decision_ratio[3] 	1
scalar abilene_network.node[4].core_layer 	interests[4] 	8255
scalar abilene_network.node[4].core_layer 	data[4] 	7761
scalar abilene_network.node[4].core_layer 	megabytes_sent[face$o[0]->client[4]] 	0
scalar abilene_network.node[4].core_layer 	megabytes_sent[face$o[1]->node[3]] 	0
scalar abilene_network.node[4].core_layer 	megabytes_sent[face$o[2]->node[5]] 	0
scalar abilene_network.node[4].content_store 	p_hit[4] 	0.047122955784373
scalar abilene_network.node[4].content_store 	hits[4] 	389
scalar abilene_network.node[4].content_store 	misses[4] 	7866
scalar abilene_network.node[4].content_store 	decision_yes[4] 	7761
scalar abilene_network.node[4].content_store 	decision_no[4] 	0
scalar abilene_network.node[4].content_store 	decision_ratio[4] 	1
scalar abilene_network.node[5].core_layer 	interests[5] 	14898
scalar abilene_network.node[5].core_layer 	repo_load[5] 	14067
scalar abilene_network.node[5].core_layer 	data[5] 	0
scalar abilene_network.node[5].core_layer 	megabytes_sent[face$o[0]->client[5]] 	0
scalar abilene_network.node[5].core_layer 	megabytes_sent[face$o[1]->node[4]] 	0
scalar abilene_network.node[5].core_layer 	megabytes_sent[face$o[2]->node[6]] 	0
scalar abilene_network.node[5].content_store 	p_hit[5] 	0.055779299234797
scalar abilene_network.node[5].content_store 	hits[5] 	831
scalar abilene_network.node[5].content_store 	misses[5] 	14067
scalar abilene_network.node[5].content_store 	decision_yes[5] 	14067
scalar abilene_network.node[5].content_store 	decision_no[5] 	0
scalar abilene_network.node[5].content_store 	decision_ratio[5] 	1
scalar abilene_network.node[6].core_layer 	interests[6] 	5810
scalar abilene_network.node[6].core_layer 	data[6] 	5332
scalar abilene_network.node[6].core_layer 	megabytes_sent[face$o[0]->client[6]] 	0
scalar abilene_network.node[6].core_layer 	megabytes_sent[face$o[1]->node[5]] 	0
scalar abilene_network.node[6].core_layer 	megabytes_sent[face$o[2]->node[7]] 	0
scalar abilene_network.node[6].content_store 	p_hit[6] 	0.078485370051635
scalar abilene_network.node[6].content_store 	hits[6] 	456
scalar abilene_network.node[6].content_store 	misses[6] 	5354
scalar abilene_network.node[6].content_store 	decision_yes[6] 	5332
scalar abilene_network.node[6].content_store 	decision_no[6] 	0
scalar abilene_network.node[6].content_store 	decision_ratio[6] 	1
scalar abilene_network.node[7].core_layer 	interests[7] 	4472
scalar abilene_network.node[7].core_layer 	data[7] 	4000
scalar abilene_network.node[7].core_layer 	megabytes_sent[face$o[0]->client[7]] 	0
scalar abilene_network.node[7].core_layer 	megabytes_sent[face$o[1]->node[3]] 	0
scalar abilene_network.node[7].core_layer 	megabytes_sent[face$o[2]->node[6]] 	0
scalar abilene_network.node[7].core_layer 	megabytes_sent[face$o[3]->node[8]] 	0
scalar abilene_network.node[7].content_store 	p_hit[7] 	0.093023255813953
scalar abilene_network.node[7].content_store 	hits[7] 	416
scalar abilene_network.node[7].content_store 	misses[7] 	4056
scalar abilene_network.node[7].content_store 	decision_yes[7] 	4000
scalar abilene_network.node[7].content_store 	decision_no[7] 	0
scalar abilene_network.node[7].content_store 	decision_ratio[7] 	1
scalar abilene_network.node[8].core_layer 	interests[8] 	3154
scalar abilene_network.node[8].core_layer 	data[8] 	2687
scalar abilene_network.node[8].core_layer 	megabytes_sent[face$o[0]->client[8]] 	0
scalar abilene_network.node[8].core_layer 	megabytes_sent[face$o[1]->node[2]] 	0
scalar abilene_network.node[8].core_layer 	megabytes_sent[face$o[2]->node[7]] 	0
scalar abilene_network.node[8].core_layer 	megabytes_sent[face$o[3]->node[9]] 	0
scalar abilene_network.node[8].content_store 	p_hit[8] 	0.12935954343691
scalar abilene_network.node[8].content_store 	hits[8] 	408
scalar abilene_network.node[8].content_store 	misses[8] 	2746
scalar abilene_network.node[8].content_store 	decision_yes[8] 	2687
scalar abilene_network.node[8].content_store 	decision_no[8] 	0
scalar abilene_network.node[8].content_store 	decision_ratio[8] 	1
scalar abilene_network.node[9].core_layer 	interests[9] 	1864
scalar abilene_network.node[9].core_layer 	data[9] 	1449
scalar abilene_network.node[9].core_layer 	megabytes_sent[face$o[0]->client[9]] 	0
scalar abilene_network.node[9].core_layer 	megabytes_sent[face$o[1]->node[10]] 	0
scalar abilene_network.node[9].core_layer 	megabytes_sent[face$o[2]->node[8]] 	0
scalar abilene_network.node[9].content_store 	p_hit[9] 	0.20118025751073
scalar abilene_network.node[9].content_store 	hits[9] 	375
scalar abilene_network.node[9].content_store 	misses[9] 	1489
scalar abilene_network.node[9].content_store 	decision_yes[9] 	1449
scalar abilene_network.node[9].content_store 	decision_no[9] 	0
scalar abilene_network.node[9].content_store 	decision_ratio[9] 	1
scalar abilene_network.node[10].core_layer 	interests[10] 	1811
scalar abilene_network.node[10].core_layer 	data[10] 	1393
scalar abilene_network.node[10].core_layer 	megabytes_sent[face$o[0]->client[10]] 	0
scalar abilene_network.node[10].core_layer 	megabytes_sent[face$o[1]->node[0]] 	0
scalar abilene_network.node[10].core_layer 	megabytes_sent[face$o[2]->node[1]] 	0
scalar abilene_network.node[10].core_layer 	megabytes_sent[face$o[3]->node[9]] 	0
scalar abilene_network.node[10].content_store 	p_hit[10] 	0.20375483158476
scalar abilene_network.node[10].content_store 	hits[10] 	369
scalar abilene_network.node[10].content_store 	misses[10] 	1442
scalar abilene_network.node[10].content_store 	decision_yes[10] 	1393
scalar abilene_network.node[10].content_store 	decision_no[10] 	0
scalar abilene_network.node[10].content_store 	decision_ratio[10] 	1
scalar abilene_network.client[0] 	hdistance[0] 	4.3997695852535
scalar abilene_network.client[0] 	downloads[0] 	1736
scalar abilene_network.client[0] 	avg_time[0] 	0.023035215516
scalar abilene_network.client[0] 	interests_sent[0] 	1781
scalar abilene_network.client[1] 	hdistance[1] 	3.8829908675799
scalar abilene_network.client[1] 	downloads[1] 	1752
scalar abilene_network.client[1] 	avg_time[1] 	0.015504034037
scalar abilene_network.client[1] 	interests_sent[1] 	1797
scalar abilene_network.client[2] 	hdistance[2] 	3.1880391029327
scalar abilene_network.client[2] 	downloads[2] 	1739
scalar abilene_network.client[2] 	avg_time[2] 	0.011228081197
scalar abilene_network.client[2] 	interests_sent[2] 	1775
scalar abilene_network.client[3] 	hdistance[3] 	2.4742501414827
scalar abilene_network.client[3] 	downloads[3] 	1767
scalar abilene_network.client[3] 	avg_time[3] 	0.007683650761
scalar abilene_network.client[3] 	interests_sent[3] 	1796
scalar abilene_network.client[4] 	hdistance[4] 	1.6514124293785
scalar abilene_network.client[4] 	downloads[4] 	1770
scalar abilene_network.client[4] 	avg_time[4] 	0.006390912039
scalar abilene_network.client[4] 	interests_sent[4] 	1787
scalar abilene_network.client[5] 	hdistance[5] 	0.86980609418283
scalar abilene_network.client[5] 	downloads[5] 	1805
scalar abilene_network.client[5] 	avg_time[5] 	0
scalar abilene_network.client[5] 	interests_sent[5] 	1805
scalar abilene_network.client[6] 	hdistance[6] 	1.5886917960089
scalar abilene_network.client[6] 	downloads[6] 	1804
scalar abilene_network.client[6] 	avg_time[6] 	0.001801457273
scalar abilene_network.client[6] 	interests_sent[6] 	1811
scalar abilene_network.client[7] 	hdistance[7] 	2.3834841628959
scalar abilene_network.client[7] 	downloads[7] 	1768
scalar abilene_network.client[7] 	avg_time[7] 	0.006529906253
scalar abilene_network.client[7] 	interests_sent[7] 	1786
scalar abilene_network.client[8] 	hdistance[8] 	3.0155502392345
scalar abilene_network.client[8] 	downloads[8] 	1672
scalar abilene_network.client[8] 	avg_time[8] 	0.012004054393
scalar abilene_network.client[8] 	interests_sent[8] 	1703
scalar abilene_network.client[9] 	hdistance[9] 	3.6282894736842
scalar abilene_network.client[9] 	downloads[9] 	1824
scalar abilene_network.client[9] 	avg_time[9] 	0.022741250799
scalar abilene_network.client[9] 	interests_sent[9] 	1864
scalar abilene_network.client[10] 	hdistance[10] 	4.2814982973893
scalar abilene_network.client[10] 	downloads[10] 	1762
scalar abilene_network.client[10] 	avg_time[10] 	0.021715679904
scalar abilene_network.client[10] 	interests_sent[10] 	1811
