version 2
run General-2-20140623-17:33:02-5478
attr D costprobprodcorr0.01
attr F nrr
attr R lru
attr a 1
attr configname General
attr csize 1e3
attr ctlg 1e5
attr datetime 20140623-17:33:02
attr experiment General
attr inifile omnetpp.ini
attr iterationvars "$net=abilene_cost, $rep=1, $priceratiovalue=10, $weights=0.333_0.333_0.334, $lambda=100, $a=1, $ctlg=1e5, $F=nrr, $ttl=1000, $D=costprobprodcorr0.01, $xi=1, $R=lru, $csize=1e3, $pricebits=0, $mytime=1800"
attr iterationvars2 "$net=abilene_cost, $rep=1, $priceratiovalue=10, $weights=0.333_0.333_0.334, $lambda=100, $a=1, $ctlg=1e5, $F=nrr, $ttl=1000, $D=costprobprodcorr0.01, $xi=1, $R=lru, $csize=1e3, $pricebits=0, $mytime=1800, $repetition=0"
attr lambda 100
attr measurement "$net=abilene_cost, $rep=1, $priceratiovalue=10, $weights=0.333_0.333_0.334, $lambda=100, $a=1, $ctlg=1e5, $F=nrr, $ttl=1000, $D=costprobprodcorr0.01, $xi=1, $R=lru, $csize=1e3, $pricebits=0, $mytime=1800"
attr mytime 1800
attr net abilene_cost
attr network networks.${net=abilene_cost}_network
attr pricebits 0
attr priceratiovalue 10
attr processid 5478
attr rep 1
attr repetition 0
attr replication #0
attr resultdir results
attr runnumber 2
attr seedset 1
attr ttl 1000
attr weights 0.333_0.333_0.334
attr xi 1

scalar . 	a 	1
scalar . 	csize 	1e3
scalar . 	ctlg 	1e5
scalar . 	lambda 	100
scalar . 	mytime 	1800
scalar . 	pricebits 	0
scalar . 	priceratiovalue 	10
scalar . 	rep 	1
scalar . 	ttl 	1000
scalar . 	xi 	1
scalar abilene_cost_network.content_distribution 	repo-0 	11
scalar abilene_cost_network.content_distribution 	repo-1 	12
scalar abilene_cost_network.content_distribution 	repo-2 	13
scalar abilene_cost_network.content_distribution 	client-0 	5
scalar abilene_cost_network.content_distribution 	client-1 	0
scalar abilene_cost_network.content_distribution 	client-2 	9
scalar abilene_cost_network.content_distribution 	repo-0_card 	33396
scalar abilene_cost_network.content_distribution 	repo-1_card 	33039
scalar abilene_cost_network.content_distribution 	repo-2_card 	33565
scalar abilene_cost_network.statistics 	repo_popularity[0] 	0.28686251265602
scalar abilene_cost_network.statistics 	repo_popularity[1] 	0.2886063426465
scalar abilene_cost_network.statistics 	repo_popularity[2] 	0.42453114469748
scalar abilene_cost_network.statistics 	stabilization_time 	2419.4
scalar abilene_cost_network.node[1].face$o[4].channel 	price[1] 	0
scalar abilene_cost_network.node[1].face$o[4].channel 	represented_price[1] 	0
scalar abilene_cost_network.node[7].face$o[4].channel 	price[7] 	0
scalar abilene_cost_network.node[7].face$o[4].channel 	represented_price[7] 	0
scalar abilene_cost_network.node[10].face$o[4].channel 	price[10] 	0
scalar abilene_cost_network.node[10].face$o[4].channel 	represented_price[10] 	0
scalar abilene_cost_network.node[11].face$o[1].channel 	price[11] 	0
scalar abilene_cost_network.node[11].face$o[1].channel 	represented_price[11] 	0
scalar abilene_cost_network.node[12].face$o[1].channel 	price[12] 	1
scalar abilene_cost_network.node[12].face$o[1].channel 	represented_price[12] 	1
scalar abilene_cost_network.node[13].face$o[1].channel 	price[13] 	10
scalar abilene_cost_network.node[13].face$o[1].channel 	represented_price[13] 	10
scalar abilene_cost_network.statistics 	p_hit 	0.11409644459885
scalar abilene_cost_network.statistics 	interests 	150093.57142857
scalar abilene_cost_network.statistics 	data 	111526.5
scalar abilene_cost_network.statistics 	hdistance 	3.4492716889401
scalar abilene_cost_network.statistics 	avg_time 	2.6266e-08
scalar abilene_cost_network.statistics 	downloads 	539939
scalar abilene_cost_network.statistics 	total_cost 	787963
scalar abilene_cost_network.statistics 	total_replicas 	100000
scalar abilene_cost_network.statistics 	inner_hit 	0.44403534473339
scalar abilene_cost_network.statistics 	interests_sent 	539939
scalar abilene_cost_network.node[0].core_layer 	interests[0] 	193820
scalar abilene_cost_network.node[0].core_layer 	data[0] 	171868
scalar abilene_cost_network.node[0].core_layer 	repo_int[0] 	300187
scalar abilene_cost_network.node[0].content_store 	p_hit[0] 	0.11325972551852
scalar abilene_cost_network.node[0].content_store 	hits[0] 	21952
scalar abilene_cost_network.node[0].content_store 	misses[0] 	171868
scalar abilene_cost_network.node[0].content_store 	decision_yes[0] 	755
scalar abilene_cost_network.node[0].content_store 	decision_no[0] 	171113
scalar abilene_cost_network.node[0].content_store 	decision_ratio[0] 	0.0043929061838155
scalar abilene_cost_network.node[0].content_store 	correction_factor[0] 	0.0027225701061802
scalar abilene_cost_network.node[0].content_store 	xi[0] 	1
scalar abilene_cost_network.node[1].core_layer 	interests[1] 	229539
scalar abilene_cost_network.node[1].core_layer 	data[1] 	185174
scalar abilene_cost_network.node[1].content_store 	p_hit[1] 	0.1932787020942
scalar abilene_cost_network.node[1].content_store 	hits[1] 	44365
scalar abilene_cost_network.node[1].content_store 	misses[1] 	185174
scalar abilene_cost_network.node[1].content_store 	decision_yes[1] 	1999
scalar abilene_cost_network.node[1].content_store 	decision_no[1] 	183175
scalar abilene_cost_network.node[1].content_store 	decision_ratio[1] 	0.010795252033223
scalar abilene_cost_network.node[1].content_store 	correction_factor[1] 	0.0027225701061802
scalar abilene_cost_network.node[1].content_store 	xi[1] 	1
scalar abilene_cost_network.node[2].core_layer 	interests[2] 	172986
scalar abilene_cost_network.node[2].core_layer 	data[2] 	160475
scalar abilene_cost_network.node[2].content_store 	p_hit[2] 	0.072323771865931
scalar abilene_cost_network.node[2].content_store 	hits[2] 	12511
scalar abilene_cost_network.node[2].content_store 	misses[2] 	160475
scalar abilene_cost_network.node[2].content_store 	decision_yes[2] 	684
scalar abilene_cost_network.node[2].content_store 	decision_no[2] 	159791
scalar abilene_cost_network.node[2].content_store 	decision_ratio[2] 	0.004262346159838
scalar abilene_cost_network.node[2].content_store 	correction_factor[2] 	0.0027225701061802
scalar abilene_cost_network.node[2].content_store 	xi[2] 	1
scalar abilene_cost_network.node[3].core_layer 	interests[3] 	171412
scalar abilene_cost_network.node[3].core_layer 	data[3] 	144100
scalar abilene_cost_network.node[3].content_store 	p_hit[3] 	0.15933540242223
scalar abilene_cost_network.node[3].content_store 	hits[3] 	27312
scalar abilene_cost_network.node[3].content_store 	misses[3] 	144100
scalar abilene_cost_network.node[3].content_store 	decision_yes[3] 	710
scalar abilene_cost_network.node[3].content_store 	decision_no[3] 	143390
scalar abilene_cost_network.node[3].content_store 	decision_ratio[3] 	0.0049271339347675
scalar abilene_cost_network.node[3].content_store 	correction_factor[3] 	0.0027225701061802
scalar abilene_cost_network.node[3].content_store 	xi[3] 	1
scalar abilene_cost_network.node[4].core_layer 	interests[4] 	122000
scalar abilene_cost_network.node[4].core_layer 	data[4] 	117783
scalar abilene_cost_network.node[4].content_store 	p_hit[4] 	0.034565573770492
scalar abilene_cost_network.node[4].content_store 	hits[4] 	4217
scalar abilene_cost_network.node[4].content_store 	misses[4] 	117783
scalar abilene_cost_network.node[4].content_store 	decision_yes[4] 	643
scalar abilene_cost_network.node[4].content_store 	decision_no[4] 	117140
scalar abilene_cost_network.node[4].content_store 	decision_ratio[4] 	0.0054591919037552
scalar abilene_cost_network.node[4].content_store 	correction_factor[4] 	0.0027225701061802
scalar abilene_cost_network.node[4].content_store 	xi[4] 	1
scalar abilene_cost_network.node[5].core_layer 	interests[5] 	185375
scalar abilene_cost_network.node[5].core_layer 	data[5] 	174325
scalar abilene_cost_network.node[5].content_store 	p_hit[5] 	0.059608900876601
scalar abilene_cost_network.node[5].content_store 	hits[5] 	11050
scalar abilene_cost_network.node[5].content_store 	misses[5] 	174325
scalar abilene_cost_network.node[5].content_store 	decision_yes[5] 	679
scalar abilene_cost_network.node[5].content_store 	decision_no[5] 	173646
scalar abilene_cost_network.node[5].content_store 	decision_ratio[5] 	0.003895023662699
scalar abilene_cost_network.node[5].content_store 	correction_factor[5] 	0.0027225701061802
scalar abilene_cost_network.node[5].content_store 	xi[5] 	1
scalar abilene_cost_network.node[6].core_layer 	interests[6] 	62884
scalar abilene_cost_network.node[6].core_layer 	data[6] 	56993
scalar abilene_cost_network.node[6].content_store 	p_hit[6] 	0.093680427453724
scalar abilene_cost_network.node[6].content_store 	hits[6] 	5891
scalar abilene_cost_network.node[6].content_store 	misses[6] 	56993
scalar abilene_cost_network.node[6].content_store 	decision_yes[6] 	59
scalar abilene_cost_network.node[6].content_store 	decision_no[6] 	56934
scalar abilene_cost_network.node[6].content_store 	decision_ratio[6] 	0.0010352148509466
scalar abilene_cost_network.node[6].content_store 	correction_factor[6] 	0.0027225701061802
scalar abilene_cost_network.node[6].content_store 	xi[6] 	1
scalar abilene_cost_network.node[7].core_layer 	interests[7] 	126299
scalar abilene_cost_network.node[7].core_layer 	data[7] 	101595
scalar abilene_cost_network.node[7].content_store 	p_hit[7] 	0.19559933174451
scalar abilene_cost_network.node[7].content_store 	hits[7] 	24704
scalar abilene_cost_network.node[7].content_store 	misses[7] 	101595
scalar abilene_cost_network.node[7].content_store 	decision_yes[7] 	198
scalar abilene_cost_network.node[7].content_store 	decision_no[7] 	101397
scalar abilene_cost_network.node[7].content_store 	decision_ratio[7] 	0.0019489148087996
scalar abilene_cost_network.node[7].content_store 	correction_factor[7] 	0.0027225701061802
scalar abilene_cost_network.node[7].content_store 	xi[7] 	1
scalar abilene_cost_network.node[8].core_layer 	interests[8] 	77391
scalar abilene_cost_network.node[8].core_layer 	data[8] 	70808
scalar abilene_cost_network.node[8].content_store 	p_hit[8] 	0.08506157046685
scalar abilene_cost_network.node[8].content_store 	hits[8] 	6583
scalar abilene_cost_network.node[8].content_store 	misses[8] 	70808
scalar abilene_cost_network.node[8].content_store 	decision_yes[8] 	84
scalar abilene_cost_network.node[8].content_store 	decision_no[8] 	70724
scalar abilene_cost_network.node[8].content_store 	decision_ratio[8] 	0.001186306632019
scalar abilene_cost_network.node[8].content_store 	correction_factor[8] 	0.0027225701061802
scalar abilene_cost_network.node[8].content_store 	xi[8] 	1
scalar abilene_cost_network.node[9].core_layer 	interests[9] 	217225
scalar abilene_cost_network.node[9].core_layer 	data[9] 	161740
scalar abilene_cost_network.node[9].content_store 	p_hit[9] 	0.25542640119692
scalar abilene_cost_network.node[9].content_store 	hits[9] 	55485
scalar abilene_cost_network.node[9].content_store 	misses[9] 	161740
scalar abilene_cost_network.node[9].content_store 	decision_yes[9] 	674
scalar abilene_cost_network.node[9].content_store 	decision_no[9] 	161066
scalar abilene_cost_network.node[9].content_store 	decision_ratio[9] 	0.0041671818968715
scalar abilene_cost_network.node[9].content_store 	correction_factor[9] 	0.0027225701061802
scalar abilene_cost_network.node[9].content_store 	xi[9] 	1
scalar abilene_cost_network.node[10].core_layer 	interests[10] 	242192
scalar abilene_cost_network.node[10].core_layer 	data[10] 	216510
scalar abilene_cost_network.node[10].content_store 	p_hit[10] 	0.10603983616304
scalar abilene_cost_network.node[10].content_store 	hits[10] 	25682
scalar abilene_cost_network.node[10].content_store 	misses[10] 	216510
scalar abilene_cost_network.node[10].content_store 	decision_yes[10] 	631
scalar abilene_cost_network.node[10].content_store 	decision_no[10] 	215879
scalar abilene_cost_network.node[10].content_store 	decision_ratio[10] 	0.0029144150385663
scalar abilene_cost_network.node[10].content_store 	correction_factor[10] 	0.0027225701061802
scalar abilene_cost_network.node[10].content_store 	xi[10] 	1
scalar abilene_cost_network.node[11].core_layer 	interests[11] 	154662
scalar abilene_cost_network.node[11].core_layer 	repo_load[11] 	154662
scalar abilene_cost_network.node[11].core_layer 	data[11] 	0
scalar abilene_cost_network.node[11].content_store 	p_hit[11] 	0
scalar abilene_cost_network.node[11].content_store 	hits[11] 	0
scalar abilene_cost_network.node[11].content_store 	misses[11] 	154662
scalar abilene_cost_network.node[11].content_store 	decision_yes[11] 	0
scalar abilene_cost_network.node[11].content_store 	decision_no[11] 	154662
scalar abilene_cost_network.node[11].content_store 	decision_ratio[11] 	0
scalar abilene_cost_network.node[12].core_layer 	interests[12] 	74143
scalar abilene_cost_network.node[12].core_layer 	repo_load[12] 	74143
scalar abilene_cost_network.node[12].core_layer 	data[12] 	0
scalar abilene_cost_network.node[12].content_store 	p_hit[12] 	0
scalar abilene_cost_network.node[12].content_store 	hits[12] 	0
scalar abilene_cost_network.node[12].content_store 	misses[12] 	74143
scalar abilene_cost_network.node[12].content_store 	decision_yes[12] 	0
scalar abilene_cost_network.node[12].content_store 	decision_no[12] 	74143
scalar abilene_cost_network.node[12].content_store 	decision_ratio[12] 	0
scalar abilene_cost_network.node[13].core_layer 	interests[13] 	71382
scalar abilene_cost_network.node[13].core_layer 	repo_load[13] 	71382
scalar abilene_cost_network.node[13].core_layer 	data[13] 	0
scalar abilene_cost_network.node[13].content_store 	p_hit[13] 	0
scalar abilene_cost_network.node[13].content_store 	hits[13] 	0
scalar abilene_cost_network.node[13].content_store 	misses[13] 	71382
scalar abilene_cost_network.node[13].content_store 	decision_yes[13] 	0
scalar abilene_cost_network.node[13].content_store 	decision_no[13] 	71382
scalar abilene_cost_network.node[13].content_store 	decision_ratio[13] 	0
scalar abilene_cost_network.client[0] 	hdistance[0] 	2.9670047524248
scalar abilene_cost_network.client[0] 	downloads[0] 	180329
scalar abilene_cost_network.client[0] 	avg_time[0] 	1.9397e-08
scalar abilene_cost_network.client[0] 	interests_sent[0] 	180329
scalar abilene_cost_network.client[5] 	hdistance[5] 	4.7398649777748
scalar abilene_cost_network.client[5] 	downloads[5] 	179526
scalar abilene_cost_network.client[5] 	avg_time[5] 	4.5521e-08
scalar abilene_cost_network.client[5] 	interests_sent[5] 	179526
scalar abilene_cost_network.client[9] 	hdistance[9] 	2.6409453366207
scalar abilene_cost_network.client[9] 	downloads[9] 	180084
scalar abilene_cost_network.client[9] 	avg_time[9] 	1.3881e-08
scalar abilene_cost_network.client[9] 	interests_sent[9] 	180084
