version 2
run General-2-20140623-17:41:40-17239
attr D costprobprodcorr0.01
attr F nrr
attr R lru
attr a 1
attr configname General
attr csize 1e3
attr ctlg 1e5
attr datetime 20140623-17:41:40
attr experiment General
attr inifile omnetpp.ini
attr iterationvars "$net=abilene_cost, $rep=1, $priceratiovalue=10, $weights=0.333_0.333_0.334, $lambda=100, $a=1, $ctlg=1e5, $F=nrr, $ttl=1000, $D=costprobprodcorr0.01, $xi=1, $R=lru, $csize=1e3, $pricebits=0, $mytime=1800"
attr iterationvars2 "$net=abilene_cost, $rep=1, $priceratiovalue=10, $weights=0.333_0.333_0.334, $lambda=100, $a=1, $ctlg=1e5, $F=nrr, $ttl=1000, $D=costprobprodcorr0.01, $xi=1, $R=lru, $csize=1e3, $pricebits=0, $mytime=1800, $repetition=0"
attr lambda 100
attr measurement "$net=abilene_cost, $rep=1, $priceratiovalue=10, $weights=0.333_0.333_0.334, $lambda=100, $a=1, $ctlg=1e5, $F=nrr, $ttl=1000, $D=costprobprodcorr0.01, $xi=1, $R=lru, $csize=1e3, $pricebits=0, $mytime=1800"
attr mytime 1800
attr net abilene_cost
attr network "networks.${net=abilene_cost, geant_cost}_network"
attr pricebits 0
attr priceratiovalue 10
attr processid 17239
attr rep 1
attr repetition 0
attr replication #0
attr resultdir results
attr runnumber 2
attr seedset 1
attr ttl 1000
attr weights 0.333_0.333_0.334
attr xi 1

scalar . 	a 	1
scalar . 	csize 	1e3
scalar . 	ctlg 	1e5
scalar . 	lambda 	100
scalar . 	mytime 	1800
scalar . 	pricebits 	0
scalar . 	priceratiovalue 	10
scalar . 	rep 	1
scalar . 	ttl 	1000
scalar . 	xi 	1
scalar abilene_cost_network.content_distribution 	repo-0 	11
scalar abilene_cost_network.content_distribution 	repo-1 	12
scalar abilene_cost_network.content_distribution 	repo-2 	13
scalar abilene_cost_network.content_distribution 	client-0 	5
scalar abilene_cost_network.content_distribution 	client-1 	0
scalar abilene_cost_network.content_distribution 	client-2 	9
scalar abilene_cost_network.content_distribution 	repo-0_card 	33396
scalar abilene_cost_network.content_distribution 	repo-1_card 	33039
scalar abilene_cost_network.content_distribution 	repo-2_card 	33565
scalar abilene_cost_network.statistics 	repo_popularity[0] 	0.28686251265602
scalar abilene_cost_network.statistics 	repo_popularity[1] 	0.2886063426465
scalar abilene_cost_network.statistics 	repo_popularity[2] 	0.42453114469748
scalar abilene_cost_network.node[1].face$o[4].channel 	price[1] 	0
scalar abilene_cost_network.node[1].face$o[4].channel 	represented_price[1] 	0
scalar abilene_cost_network.node[7].face$o[4].channel 	price[7] 	0
scalar abilene_cost_network.node[7].face$o[4].channel 	represented_price[7] 	0
scalar abilene_cost_network.node[10].face$o[4].channel 	price[10] 	0
scalar abilene_cost_network.node[10].face$o[4].channel 	represented_price[10] 	0
scalar abilene_cost_network.node[11].face$o[1].channel 	price[11] 	0
scalar abilene_cost_network.node[11].face$o[1].channel 	represented_price[11] 	0
scalar abilene_cost_network.node[12].face$o[1].channel 	price[12] 	1
scalar abilene_cost_network.node[12].face$o[1].channel 	represented_price[12] 	1
scalar abilene_cost_network.node[13].face$o[1].channel 	price[13] 	10
scalar abilene_cost_network.node[13].face$o[1].channel 	represented_price[13] 	10
scalar abilene_cost_network.statistics 	p_hit 	0.0836958443855
scalar abilene_cost_network.statistics 	interests 	24235.714285714
scalar abilene_cost_network.statistics 	data 	18207.857142857
scalar abilene_cost_network.statistics 	hdistance 	3.733498785362
scalar abilene_cost_network.statistics 	avg_time 	0.015756975938
scalar abilene_cost_network.statistics 	downloads 	82861
scalar abilene_cost_network.statistics 	total_cost 	151778
scalar abilene_cost_network.statistics 	total_replicas 	100000
scalar abilene_cost_network.statistics 	inner_hit 	0.34429948950652
scalar abilene_cost_network.statistics 	interests_sent 	84388
scalar abilene_cost_network.node[0].core_layer 	interests[0] 	30175
scalar abilene_cost_network.node[0].core_layer 	data[0] 	26430
scalar abilene_cost_network.node[0].core_layer 	repo_int[0] 	54332
scalar abilene_cost_network.node[0].content_store 	p_hit[0] 	0.10614747307374
scalar abilene_cost_network.node[0].content_store 	hits[0] 	3203
scalar abilene_cost_network.node[0].content_store 	misses[0] 	26972
scalar abilene_cost_network.node[0].content_store 	decision_yes[0] 	144
scalar abilene_cost_network.node[0].content_store 	decision_no[0] 	26286
scalar abilene_cost_network.node[0].content_store 	decision_ratio[0] 	0.0054483541430193
scalar abilene_cost_network.node[0].content_store 	correction_factor[0] 	0.0027225701061802
scalar abilene_cost_network.node[0].content_store 	xi[0] 	1
scalar abilene_cost_network.node[1].core_layer 	interests[1] 	38444
scalar abilene_cost_network.node[1].core_layer 	data[1] 	34220
scalar abilene_cost_network.node[1].content_store 	p_hit[1] 	0.10987410259078
scalar abilene_cost_network.node[1].content_store 	hits[1] 	4224
scalar abilene_cost_network.node[1].content_store 	misses[1] 	34220
scalar abilene_cost_network.node[1].content_store 	decision_yes[1] 	378
scalar abilene_cost_network.node[1].content_store 	decision_no[1] 	33842
scalar abilene_cost_network.node[1].content_store 	decision_ratio[1] 	0.01104617182934
scalar abilene_cost_network.node[1].content_store 	correction_factor[1] 	0.0027225701061802
scalar abilene_cost_network.node[1].content_store 	xi[1] 	1
scalar abilene_cost_network.node[2].core_layer 	interests[2] 	30454
scalar abilene_cost_network.node[2].core_layer 	data[2] 	28463
scalar abilene_cost_network.node[2].content_store 	p_hit[2] 	0.061010047941157
scalar abilene_cost_network.node[2].content_store 	hits[2] 	1858
scalar abilene_cost_network.node[2].content_store 	misses[2] 	28596
scalar abilene_cost_network.node[2].content_store 	decision_yes[2] 	131
scalar abilene_cost_network.node[2].content_store 	decision_no[2] 	28332
scalar abilene_cost_network.node[2].content_store 	decision_ratio[2] 	0.0046024663598356
scalar abilene_cost_network.node[2].content_store 	correction_factor[2] 	0.0027225701061802
scalar abilene_cost_network.node[2].content_store 	xi[2] 	1
scalar abilene_cost_network.node[3].core_layer 	interests[3] 	31346
scalar abilene_cost_network.node[3].core_layer 	data[3] 	23734
scalar abilene_cost_network.node[3].content_store 	p_hit[3] 	0.2428380016589
scalar abilene_cost_network.node[3].content_store 	hits[3] 	7612
scalar abilene_cost_network.node[3].content_store 	misses[3] 	23734
scalar abilene_cost_network.node[3].content_store 	decision_yes[3] 	153
scalar abilene_cost_network.node[3].content_store 	decision_no[3] 	23581
scalar abilene_cost_network.node[3].content_store 	decision_ratio[3] 	0.0064464481334794
scalar abilene_cost_network.node[3].content_store 	correction_factor[3] 	0.0027225701061802
scalar abilene_cost_network.node[3].content_store 	xi[3] 	1
scalar abilene_cost_network.node[4].core_layer 	interests[4] 	19584
scalar abilene_cost_network.node[4].core_layer 	data[4] 	19273
scalar abilene_cost_network.node[4].content_store 	p_hit[4] 	0.015880310457516
scalar abilene_cost_network.node[4].content_store 	hits[4] 	311
scalar abilene_cost_network.node[4].content_store 	misses[4] 	19273
scalar abilene_cost_network.node[4].content_store 	decision_yes[4] 	126
scalar abilene_cost_network.node[4].content_store 	decision_no[4] 	19147
scalar abilene_cost_network.node[4].content_store 	decision_ratio[4] 	0.0065376433352358
scalar abilene_cost_network.node[4].content_store 	correction_factor[4] 	0.0027225701061802
scalar abilene_cost_network.node[4].content_store 	xi[4] 	1
scalar abilene_cost_network.node[5].core_layer 	interests[5] 	28359
scalar abilene_cost_network.node[5].core_layer 	data[5] 	27293
scalar abilene_cost_network.node[5].content_store 	p_hit[5] 	0.021263091082196
scalar abilene_cost_network.node[5].content_store 	hits[5] 	603
scalar abilene_cost_network.node[5].content_store 	misses[5] 	27756
scalar abilene_cost_network.node[5].content_store 	decision_yes[5] 	141
scalar abilene_cost_network.node[5].content_store 	decision_no[5] 	27152
scalar abilene_cost_network.node[5].content_store 	decision_ratio[5] 	0.0051661598211996
scalar abilene_cost_network.node[5].content_store 	correction_factor[5] 	0.0027225701061802
scalar abilene_cost_network.node[5].content_store 	xi[5] 	1
scalar abilene_cost_network.node[6].core_layer 	interests[6] 	8513
scalar abilene_cost_network.node[6].core_layer 	data[6] 	7939
scalar abilene_cost_network.node[6].content_store 	p_hit[6] 	0.067426289204746
scalar abilene_cost_network.node[6].content_store 	hits[6] 	574
scalar abilene_cost_network.node[6].content_store 	misses[6] 	7939
scalar abilene_cost_network.node[6].content_store 	decision_yes[6] 	11
scalar abilene_cost_network.node[6].content_store 	decision_no[6] 	7928
scalar abilene_cost_network.node[6].content_store 	decision_ratio[6] 	0.0013855649326112
scalar abilene_cost_network.node[6].content_store 	correction_factor[6] 	0.0027225701061802
scalar abilene_cost_network.node[6].content_store 	xi[6] 	1
scalar abilene_cost_network.node[7].core_layer 	interests[7] 	21984
scalar abilene_cost_network.node[7].core_layer 	data[7] 	18026
scalar abilene_cost_network.node[7].content_store 	p_hit[7] 	0.18004002911208
scalar abilene_cost_network.node[7].content_store 	hits[7] 	3958
scalar abilene_cost_network.node[7].content_store 	misses[7] 	18026
scalar abilene_cost_network.node[7].content_store 	decision_yes[7] 	54
scalar abilene_cost_network.node[7].content_store 	decision_no[7] 	17972
scalar abilene_cost_network.node[7].content_store 	decision_ratio[7] 	0.0029956729168978
scalar abilene_cost_network.node[7].content_store 	correction_factor[7] 	0.0027225701061802
scalar abilene_cost_network.node[7].content_store 	xi[7] 	1
scalar abilene_cost_network.node[8].core_layer 	interests[8] 	12007
scalar abilene_cost_network.node[8].core_layer 	data[8] 	10893
scalar abilene_cost_network.node[8].content_store 	p_hit[8] 	0.09277921212626
scalar abilene_cost_network.node[8].content_store 	hits[8] 	1114
scalar abilene_cost_network.node[8].content_store 	misses[8] 	10893
scalar abilene_cost_network.node[8].content_store 	decision_yes[8] 	15
scalar abilene_cost_network.node[8].content_store 	decision_no[8] 	10878
scalar abilene_cost_network.node[8].content_store 	decision_ratio[8] 	0.0013770311209033
scalar abilene_cost_network.node[8].content_store 	correction_factor[8] 	0.0027225701061802
scalar abilene_cost_network.node[8].content_store 	xi[8] 	1
scalar abilene_cost_network.node[9].core_layer 	interests[9] 	28835
scalar abilene_cost_network.node[9].core_layer 	data[9] 	27273
scalar abilene_cost_network.node[9].content_store 	p_hit[9] 	0.036067279348015
scalar abilene_cost_network.node[9].content_store 	hits[9] 	1040
scalar abilene_cost_network.node[9].content_store 	misses[9] 	27795
scalar abilene_cost_network.node[9].content_store 	decision_yes[9] 	121
scalar abilene_cost_network.node[9].content_store 	decision_no[9] 	27152
scalar abilene_cost_network.node[9].content_store 	decision_ratio[9] 	0.0044366223004437
scalar abilene_cost_network.node[9].content_store 	correction_factor[9] 	0.0027225701061802
scalar abilene_cost_network.node[9].content_store 	xi[9] 	1
scalar abilene_cost_network.node[10].core_layer 	interests[10] 	35267
scalar abilene_cost_network.node[10].core_layer 	data[10] 	31366
scalar abilene_cost_network.node[10].content_store 	p_hit[10] 	0.11061332123515
scalar abilene_cost_network.node[10].content_store 	hits[10] 	3901
scalar abilene_cost_network.node[10].content_store 	misses[10] 	31366
scalar abilene_cost_network.node[10].content_store 	decision_yes[10] 	145
scalar abilene_cost_network.node[10].content_store 	decision_no[10] 	31221
scalar abilene_cost_network.node[10].content_store 	decision_ratio[10] 	0.0046228400178537
scalar abilene_cost_network.node[10].content_store 	correction_factor[10] 	0.0027225701061802
scalar abilene_cost_network.node[10].content_store 	xi[10] 	1
scalar abilene_cost_network.node[11].core_layer 	interests[11] 	24135
scalar abilene_cost_network.node[11].core_layer 	repo_load[11] 	24135
scalar abilene_cost_network.node[11].core_layer 	data[11] 	0
scalar abilene_cost_network.node[11].content_store 	p_hit[11] 	0
scalar abilene_cost_network.node[11].content_store 	hits[11] 	0
scalar abilene_cost_network.node[11].content_store 	misses[11] 	24135
scalar abilene_cost_network.node[11].content_store 	decision_yes[11] 	0
scalar abilene_cost_network.node[11].content_store 	decision_no[11] 	24135
scalar abilene_cost_network.node[11].content_store 	decision_ratio[11] 	0
scalar abilene_cost_network.node[12].core_layer 	interests[12] 	16688
scalar abilene_cost_network.node[12].core_layer 	repo_load[12] 	16688
scalar abilene_cost_network.node[12].core_layer 	data[12] 	0
scalar abilene_cost_network.node[12].content_store 	p_hit[12] 	0
scalar abilene_cost_network.node[12].content_store 	hits[12] 	0
scalar abilene_cost_network.node[12].content_store 	misses[12] 	16688
scalar abilene_cost_network.node[12].content_store 	decision_yes[12] 	0
scalar abilene_cost_network.node[12].content_store 	decision_no[12] 	16688
scalar abilene_cost_network.node[12].content_store 	decision_ratio[12] 	0
scalar abilene_cost_network.node[13].core_layer 	interests[13] 	13509
scalar abilene_cost_network.node[13].core_layer 	repo_load[13] 	13509
scalar abilene_cost_network.node[13].core_layer 	data[13] 	0
scalar abilene_cost_network.node[13].content_store 	p_hit[13] 	0
scalar abilene_cost_network.node[13].content_store 	hits[13] 	0
scalar abilene_cost_network.node[13].content_store 	misses[13] 	13509
scalar abilene_cost_network.node[13].content_store 	decision_yes[13] 	0
scalar abilene_cost_network.node[13].content_store 	decision_no[13] 	13509
scalar abilene_cost_network.node[13].content_store 	decision_ratio[13] 	0
scalar abilene_cost_network.client[0] 	hdistance[0] 	3.3005830587042
scalar abilene_cost_network.client[0] 	downloads[0] 	27613
scalar abilene_cost_network.client[0] 	avg_time[0] 	0.014561799266
scalar abilene_cost_network.client[0] 	interests_sent[0] 	28155
scalar abilene_cost_network.client[5] 	hdistance[5] 	4.8474932126697
scalar abilene_cost_network.client[5] 	downloads[5] 	27625
scalar abilene_cost_network.client[5] 	avg_time[5] 	0.01913662801
scalar abilene_cost_network.client[5] 	interests_sent[5] 	28088
scalar abilene_cost_network.client[9] 	hdistance[9] 	3.052420084712
scalar abilene_cost_network.client[9] 	downloads[9] 	27623
scalar abilene_cost_network.client[9] 	avg_time[9] 	0.013572500538
scalar abilene_cost_network.client[9] 	interests_sent[9] 	28145
