version 2
run General-4-20150401-18:41:08-10880
attr D costaware0.01
attr F nrr
attr R lru
attr a 0.9
attr configname General
attr csize 1e3
attr ctlg 1e5
attr datetime 20150401-18:41:08
attr experiment General
attr inifile omnetpp.ini
attr iterationvars "$rep=19, $net=cost_scenario, $lambda=100, $a=0.9, $ctlg=1e5, $F=nrr, $ttl=10, $D=costaware0.01, $R=lru, $csize=1e3, $window=60, $variance=0.05, $mytime=1800000, $kappa=1, $priceratiovalue=10, $splits=0.333_0.333_0.334, $pricebits=0"
attr iterationvars2 "$rep=19, $net=cost_scenario, $lambda=100, $a=0.9, $ctlg=1e5, $F=nrr, $ttl=10, $D=costaware0.01, $R=lru, $csize=1e3, $window=60, $variance=0.05, $mytime=1800000, $kappa=1, $priceratiovalue=10, $splits=0.333_0.333_0.334, $pricebits=0, $repetition=0"
attr kappa 1
attr lambda 100
attr measurement "$rep=19, $net=cost_scenario, $lambda=100, $a=0.9, $ctlg=1e5, $F=nrr, $ttl=10, $D=costaware0.01, $R=lru, $csize=1e3, $window=60, $variance=0.05, $mytime=1800000, $kappa=1, $priceratiovalue=10, $splits=0.333_0.333_0.334, $pricebits=0"
attr mytime 1800000
attr net cost_scenario
attr network networks.${net=cost_scenario}_network
attr pricebits 0
attr priceratiovalue 10
attr processid 10880
attr rep 19
attr repetition 0
attr replication #0
attr resultdir results
attr runnumber 4
attr seedset 19
attr splits 0.333_0.333_0.334
attr ttl 10
attr variance 0.05
attr window 60

scalar . 	a 	0.9
scalar . 	csize 	1e3
scalar . 	ctlg 	1e5
scalar . 	kappa 	1
scalar . 	lambda 	100
scalar . 	mytime 	1800000
scalar . 	pricebits 	0
scalar . 	priceratiovalue 	10
scalar . 	rep 	19
scalar . 	ttl 	10
scalar . 	variance 	0.05
scalar . 	window 	60
scalar cost_scenario_network.content_distribution 	repo-0 	1
scalar cost_scenario_network.content_distribution 	repo-1 	2
scalar cost_scenario_network.content_distribution 	repo-2 	3
scalar cost_scenario_network.content_distribution 	client-0 	0
scalar cost_scenario_network.content_distribution 	repo-0_card 	33369
scalar cost_scenario_network.content_distribution 	repo-0_price 	1
scalar cost_scenario_network.content_distribution 	repo-1_card 	33388
scalar cost_scenario_network.content_distribution 	repo-1_price 	10
scalar cost_scenario_network.content_distribution 	repo-2_card 	33243
scalar cost_scenario_network.content_distribution 	repo-2_price 	0
scalar cost_scenario_network.statistics 	repo_popularity[0] 	0.30038755284487
scalar cost_scenario_network.statistics 	repo_popularity[1] 	0.33608698312869
scalar cost_scenario_network.statistics 	repo_popularity[2] 	0.36352546402644
scalar cost_scenario_network.statistics 	p_hit 	0.065154034732818
scalar cost_scenario_network.statistics 	interests 	29165.5
scalar cost_scenario_network.statistics 	data 	13632.5
scalar cost_scenario_network.statistics 	hdistance 	1.7553234295279
scalar cost_scenario_network.statistics 	avg_time 	0
scalar cost_scenario_network.statistics 	downloads 	62131
scalar cost_scenario_network.statistics 	total_cost 	163088
scalar cost_scenario_network.statistics 	total_replicas 	100000
scalar cost_scenario_network.statistics 	inner_hit 	0.12233828523603
scalar cost_scenario_network.statistics 	interests_sent 	62132
scalar cost_scenario_network.node[0].core_layer 	interests[0] 	62132
scalar cost_scenario_network.node[0].core_layer 	data[0] 	54530
scalar cost_scenario_network.node[0].core_layer 	repo_int[0] 	54530
scalar cost_scenario_network.node[0].content_store 	p_hit[0] 	0.12233631622996
scalar cost_scenario_network.node[0].content_store 	hits[0] 	7601
scalar cost_scenario_network.node[0].content_store 	misses[0] 	54531
scalar cost_scenario_network.node[0].content_store 	decision_yes[0] 	437
scalar cost_scenario_network.node[0].content_store 	decision_no[0] 	54093
scalar cost_scenario_network.node[0].content_store 	decision_ratio[0] 	0.00801393728223
scalar cost_scenario_network.node[0].content_store 	cache_value[0] 	28.619518064994
scalar cost_scenario_network.node[0].content_store 	average_price_of_cache[0] 	9.0320366132723
scalar cost_scenario_network.node[0].content_store 	correction_factor[0] 	0.0027225701061802
scalar cost_scenario_network.node[0].content_store 	kappa[0] 	1
scalar cost_scenario_network.node[1].core_layer 	interests[1] 	17348
scalar cost_scenario_network.node[1].core_layer 	repo_load[1] 	17348
scalar cost_scenario_network.node[1].core_layer 	data[1] 	0
scalar cost_scenario_network.node[1].content_store 	p_hit[1] 	0
scalar cost_scenario_network.node[1].content_store 	hits[1] 	0
scalar cost_scenario_network.node[1].content_store 	misses[1] 	17348
scalar cost_scenario_network.node[1].content_store 	decision_yes[1] 	0
scalar cost_scenario_network.node[1].content_store 	decision_no[1] 	17348
scalar cost_scenario_network.node[1].content_store 	decision_ratio[1] 	0
scalar cost_scenario_network.node[1].content_store 	cache_value[1] 	8.6855317629831e-317
scalar cost_scenario_network.node[1].content_store 	average_price_of_cache[1] 	-nan
scalar cost_scenario_network.node[1].content_store 	correction_factor[1] 	0.0027225701061802
scalar cost_scenario_network.node[1].content_store 	kappa[1] 	1
scalar cost_scenario_network.node[2].core_layer 	interests[2] 	14574
scalar cost_scenario_network.node[2].core_layer 	repo_load[2] 	14574
scalar cost_scenario_network.node[2].core_layer 	data[2] 	0
scalar cost_scenario_network.node[2].content_store 	p_hit[2] 	0
scalar cost_scenario_network.node[2].content_store 	hits[2] 	0
scalar cost_scenario_network.node[2].content_store 	misses[2] 	14574
scalar cost_scenario_network.node[2].content_store 	decision_yes[2] 	0
scalar cost_scenario_network.node[2].content_store 	decision_no[2] 	14574
scalar cost_scenario_network.node[2].content_store 	decision_ratio[2] 	0
scalar cost_scenario_network.node[2].content_store 	cache_value[2] 	8.6871206781001e-317
scalar cost_scenario_network.node[2].content_store 	average_price_of_cache[2] 	-nan
scalar cost_scenario_network.node[2].content_store 	correction_factor[2] 	0.0027225701061802
scalar cost_scenario_network.node[2].content_store 	kappa[2] 	1
scalar cost_scenario_network.node[3].core_layer 	interests[3] 	22608
scalar cost_scenario_network.node[3].core_layer 	repo_load[3] 	22608
scalar cost_scenario_network.node[3].core_layer 	data[3] 	0
scalar cost_scenario_network.node[3].content_store 	p_hit[3] 	0
scalar cost_scenario_network.node[3].content_store 	hits[3] 	0
scalar cost_scenario_network.node[3].content_store 	misses[3] 	22608
scalar cost_scenario_network.node[3].content_store 	decision_yes[3] 	0
scalar cost_scenario_network.node[3].content_store 	decision_no[3] 	22608
scalar cost_scenario_network.node[3].content_store 	decision_ratio[3] 	0
scalar cost_scenario_network.node[3].content_store 	cache_value[3] 	8.6887095932172e-317
scalar cost_scenario_network.node[3].content_store 	average_price_of_cache[3] 	-nan
scalar cost_scenario_network.node[3].content_store 	correction_factor[3] 	0.0027225701061802
scalar cost_scenario_network.node[3].content_store 	kappa[3] 	1
scalar cost_scenario_network.client[0] 	hdistance[0] 	1.7553234295279
scalar cost_scenario_network.client[0] 	downloads[0] 	62131
scalar cost_scenario_network.client[0] 	avg_time[0] 	0
scalar cost_scenario_network.client[0] 	interests_sent[0] 	62132
