version 2
run General-4-20140627-18:01:22-15156
attr D never
attr F spr
attr R lru
attr a 1
attr configname General
attr csize 1e3
attr ctlg 1e5
attr datetime 20140627-18:01:22
attr experiment General
attr inifile omnetpp.ini
attr iterationvars "$net=geant_cost, $rep=18, $priceratiovalue=10, $weights=0.333_0.333_0.334, $lambda=100, $a=1, $ctlg=1e5, $F=spr, $ttl=1000, $D=never, $xi=1, $R=lru, $csize=1e3, $pricebits=0, $window=60, $variance=0.05, $mytime=1800"
attr iterationvars2 "$net=geant_cost, $rep=18, $priceratiovalue=10, $weights=0.333_0.333_0.334, $lambda=100, $a=1, $ctlg=1e5, $F=spr, $ttl=1000, $D=never, $xi=1, $R=lru, $csize=1e3, $pricebits=0, $window=60, $variance=0.05, $mytime=1800, $repetition=0"
attr lambda 100
attr measurement "$net=geant_cost, $rep=18, $priceratiovalue=10, $weights=0.333_0.333_0.334, $lambda=100, $a=1, $ctlg=1e5, $F=spr, $ttl=1000, $D=never, $xi=1, $R=lru, $csize=1e3, $pricebits=0, $window=60, $variance=0.05, $mytime=1800"
attr mytime 1800
attr net geant_cost
attr network "networks.${net=geant_cost, abilene_cost}_network"
attr pricebits 0
attr priceratiovalue 10
attr processid 15156
attr rep 18
attr repetition 0
attr replication #0
attr resultdir results
attr runnumber 4
attr seedset 18
attr ttl 1000
attr variance 0.05
attr weights 0.333_0.333_0.334
attr window 60
attr xi 1

scalar . 	a 	1
scalar . 	csize 	1e3
scalar . 	ctlg 	1e5
scalar . 	lambda 	100
scalar . 	mytime 	1800
scalar . 	pricebits 	0
scalar . 	priceratiovalue 	10
scalar . 	rep 	18
scalar . 	ttl 	1000
scalar . 	variance 	0.05
scalar . 	window 	60
scalar . 	xi 	1
scalar geant_cost_network.content_distribution 	repo-0 	22
scalar geant_cost_network.content_distribution 	repo-1 	23
scalar geant_cost_network.content_distribution 	repo-2 	24
scalar geant_cost_network.content_distribution 	client-0 	20
scalar geant_cost_network.content_distribution 	client-1 	10
scalar geant_cost_network.content_distribution 	client-2 	12
scalar geant_cost_network.content_distribution 	client-3 	9
scalar geant_cost_network.content_distribution 	client-4 	5
scalar geant_cost_network.content_distribution 	repo-0_card 	33459
scalar geant_cost_network.content_distribution 	repo-1_card 	33216
scalar geant_cost_network.content_distribution 	repo-2_card 	33325
scalar geant_cost_network.statistics 	repo_popularity[0] 	0.37544107217466
scalar geant_cost_network.statistics 	repo_popularity[1] 	0.27083019094872
scalar geant_cost_network.statistics 	repo_popularity[2] 	0.35372873687662
scalar geant_cost_network.statistics 	stabilization_time 	36060
scalar geant_cost_network.node[7].face$o[4].channel 	price[7] 	0
scalar geant_cost_network.node[7].face$o[4].channel 	represented_price[7] 	0
scalar geant_cost_network.node[8].face$o[3].channel 	price[8] 	0
scalar geant_cost_network.node[8].face$o[3].channel 	represented_price[8] 	0
scalar geant_cost_network.node[21].face$o[5].channel 	price[21] 	0
scalar geant_cost_network.node[21].face$o[5].channel 	represented_price[21] 	0
scalar geant_cost_network.node[22].face$o[1].channel 	price[22] 	0
scalar geant_cost_network.node[22].face$o[1].channel 	represented_price[22] 	0
scalar geant_cost_network.node[23].face$o[1].channel 	price[23] 	1
scalar geant_cost_network.node[23].face$o[1].channel 	represented_price[23] 	1
scalar geant_cost_network.node[24].face$o[1].channel 	price[24] 	10
scalar geant_cost_network.node[24].face$o[1].channel 	represented_price[24] 	10
scalar geant_cost_network.statistics 	p_hit 	0
scalar geant_cost_network.statistics 	interests 	167256.44
scalar geant_cost_network.statistics 	data 	131232.76
scalar geant_cost_network.statistics 	hdistance 	4.68518718722
scalar geant_cost_network.statistics 	avg_time 	0.006754455522
scalar geant_cost_network.statistics 	downloads 	893981
scalar geant_cost_network.statistics 	total_cost 	3377820
scalar geant_cost_network.statistics 	total_replicas 	100000
scalar geant_cost_network.statistics 	inner_hit 	0.0042920375265246
scalar geant_cost_network.statistics 	interests_sent 	900596
scalar geant_cost_network.node[0].core_layer 	interests[0] 	0
scalar geant_cost_network.node[0].core_layer 	data[0] 	0
scalar geant_cost_network.node[0].core_layer 	repo_int[0] 	890144
scalar geant_cost_network.node[0].content_store 	p_hit[0] 	-nan
scalar geant_cost_network.node[0].content_store 	hits[0] 	0
scalar geant_cost_network.node[0].content_store 	misses[0] 	0
scalar geant_cost_network.node[0].content_store 	decision_yes[0] 	0
scalar geant_cost_network.node[0].content_store 	decision_no[0] 	0
scalar geant_cost_network.node[0].content_store 	decision_ratio[0] 	0
scalar geant_cost_network.node[1].core_layer 	interests[1] 	0
scalar geant_cost_network.node[1].core_layer 	data[1] 	0
scalar geant_cost_network.node[1].content_store 	p_hit[1] 	-nan
scalar geant_cost_network.node[1].content_store 	hits[1] 	0
scalar geant_cost_network.node[1].content_store 	misses[1] 	0
scalar geant_cost_network.node[1].content_store 	decision_yes[1] 	0
scalar geant_cost_network.node[1].content_store 	decision_no[1] 	0
scalar geant_cost_network.node[1].content_store 	decision_ratio[1] 	0
scalar geant_cost_network.node[2].core_layer 	interests[2] 	0
scalar geant_cost_network.node[2].core_layer 	data[2] 	0
scalar geant_cost_network.node[2].content_store 	p_hit[2] 	-nan
scalar geant_cost_network.node[2].content_store 	hits[2] 	0
scalar geant_cost_network.node[2].content_store 	misses[2] 	0
scalar geant_cost_network.node[2].content_store 	decision_yes[2] 	0
scalar geant_cost_network.node[2].content_store 	decision_no[2] 	0
scalar geant_cost_network.node[2].content_store 	decision_ratio[2] 	0
scalar geant_cost_network.node[3].core_layer 	interests[3] 	253950
scalar geant_cost_network.node[3].core_layer 	data[3] 	253950
scalar geant_cost_network.node[3].content_store 	p_hit[3] 	0
scalar geant_cost_network.node[3].content_store 	hits[3] 	0
scalar geant_cost_network.node[3].content_store 	misses[3] 	253950
scalar geant_cost_network.node[3].content_store 	decision_yes[3] 	0
scalar geant_cost_network.node[3].content_store 	decision_no[3] 	253950
scalar geant_cost_network.node[3].content_store 	decision_ratio[3] 	0
scalar geant_cost_network.node[4].core_layer 	interests[4] 	369212
scalar geant_cost_network.node[4].core_layer 	data[4] 	368759
scalar geant_cost_network.node[4].content_store 	p_hit[4] 	0
scalar geant_cost_network.node[4].content_store 	hits[4] 	0
scalar geant_cost_network.node[4].content_store 	misses[4] 	369212
scalar geant_cost_network.node[4].content_store 	decision_yes[4] 	0
scalar geant_cost_network.node[4].content_store 	decision_no[4] 	368759
scalar geant_cost_network.node[4].content_store 	decision_ratio[4] 	0
scalar geant_cost_network.node[5].core_layer 	interests[5] 	179547
scalar geant_cost_network.node[5].core_layer 	data[5] 	177702
scalar geant_cost_network.node[5].content_store 	p_hit[5] 	0
scalar geant_cost_network.node[5].content_store 	hits[5] 	0
scalar geant_cost_network.node[5].content_store 	misses[5] 	179547
scalar geant_cost_network.node[5].content_store 	decision_yes[5] 	0
scalar geant_cost_network.node[5].content_store 	decision_no[5] 	177702
scalar geant_cost_network.node[5].content_store 	decision_ratio[5] 	0
scalar geant_cost_network.node[6].core_layer 	interests[6] 	115189
scalar geant_cost_network.node[6].core_layer 	data[6] 	115189
scalar geant_cost_network.node[6].content_store 	p_hit[6] 	0
scalar geant_cost_network.node[6].content_store 	hits[6] 	0
scalar geant_cost_network.node[6].content_store 	misses[6] 	115189
scalar geant_cost_network.node[6].content_store 	decision_yes[6] 	0
scalar geant_cost_network.node[6].content_store 	decision_no[6] 	115189
scalar geant_cost_network.node[6].content_store 	decision_ratio[6] 	0
scalar geant_cost_network.node[7].core_layer 	interests[7] 	430173
scalar geant_cost_network.node[7].core_layer 	data[7] 	430131
scalar geant_cost_network.node[7].content_store 	p_hit[7] 	0
scalar geant_cost_network.node[7].content_store 	hits[7] 	0
scalar geant_cost_network.node[7].content_store 	misses[7] 	430173
scalar geant_cost_network.node[7].content_store 	decision_yes[7] 	0
scalar geant_cost_network.node[7].content_store 	decision_no[7] 	430131
scalar geant_cost_network.node[7].content_store 	decision_ratio[7] 	0
scalar geant_cost_network.node[8].core_layer 	interests[8] 	377030
scalar geant_cost_network.node[8].core_layer 	data[8] 	377030
scalar geant_cost_network.node[8].content_store 	p_hit[8] 	0
scalar geant_cost_network.node[8].content_store 	hits[8] 	0
scalar geant_cost_network.node[8].content_store 	misses[8] 	377030
scalar geant_cost_network.node[8].content_store 	decision_yes[8] 	0
scalar geant_cost_network.node[8].content_store 	decision_no[8] 	377030
scalar geant_cost_network.node[8].content_store 	decision_ratio[8] 	0
scalar geant_cost_network.node[9].core_layer 	interests[9] 	408301
scalar geant_cost_network.node[9].core_layer 	data[9] 	405623
scalar geant_cost_network.node[9].content_store 	p_hit[9] 	0
scalar geant_cost_network.node[9].content_store 	hits[9] 	0
scalar geant_cost_network.node[9].content_store 	misses[9] 	408301
scalar geant_cost_network.node[9].content_store 	decision_yes[9] 	0
scalar geant_cost_network.node[9].content_store 	decision_no[9] 	405623
scalar geant_cost_network.node[9].content_store 	decision_ratio[9] 	0
scalar geant_cost_network.node[10].core_layer 	interests[10] 	180638
scalar geant_cost_network.node[10].core_layer 	data[10] 	179356
scalar geant_cost_network.node[10].content_store 	p_hit[10] 	0
scalar geant_cost_network.node[10].content_store 	hits[10] 	0
scalar geant_cost_network.node[10].content_store 	misses[10] 	180638
scalar geant_cost_network.node[10].content_store 	decision_yes[10] 	0
scalar geant_cost_network.node[10].content_store 	decision_no[10] 	179356
scalar geant_cost_network.node[10].content_store 	decision_ratio[10] 	0
scalar geant_cost_network.node[11].core_layer 	interests[11] 	0
scalar geant_cost_network.node[11].core_layer 	data[11] 	0
scalar geant_cost_network.node[11].content_store 	p_hit[11] 	-nan
scalar geant_cost_network.node[11].content_store 	hits[11] 	0
scalar geant_cost_network.node[11].content_store 	misses[11] 	0
scalar geant_cost_network.node[11].content_store 	decision_yes[11] 	0
scalar geant_cost_network.node[11].content_store 	decision_no[11] 	0
scalar geant_cost_network.node[11].content_store 	decision_ratio[11] 	0
scalar geant_cost_network.node[12].core_layer 	interests[12] 	305596
scalar geant_cost_network.node[12].core_layer 	data[12] 	302825
scalar geant_cost_network.node[12].content_store 	p_hit[12] 	0
scalar geant_cost_network.node[12].content_store 	hits[12] 	0
scalar geant_cost_network.node[12].content_store 	misses[12] 	305596
scalar geant_cost_network.node[12].content_store 	decision_yes[12] 	0
scalar geant_cost_network.node[12].content_store 	decision_no[12] 	302825
scalar geant_cost_network.node[12].content_store 	decision_ratio[12] 	0
scalar geant_cost_network.node[13].core_layer 	interests[13] 	0
scalar geant_cost_network.node[13].core_layer 	data[13] 	0
scalar geant_cost_network.node[13].content_store 	p_hit[13] 	-nan
scalar geant_cost_network.node[13].content_store 	hits[13] 	0
scalar geant_cost_network.node[13].content_store 	misses[13] 	0
scalar geant_cost_network.node[13].content_store 	decision_yes[13] 	0
scalar geant_cost_network.node[13].content_store 	decision_no[13] 	0
scalar geant_cost_network.node[13].content_store 	decision_ratio[13] 	0
scalar geant_cost_network.node[14].core_layer 	interests[14] 	62513
scalar geant_cost_network.node[14].core_layer 	data[14] 	62513
scalar geant_cost_network.node[14].content_store 	p_hit[14] 	0
scalar geant_cost_network.node[14].content_store 	hits[14] 	0
scalar geant_cost_network.node[14].content_store 	misses[14] 	62513
scalar geant_cost_network.node[14].content_store 	decision_yes[14] 	0
scalar geant_cost_network.node[14].content_store 	decision_no[14] 	62513
scalar geant_cost_network.node[14].content_store 	decision_ratio[14] 	0
scalar geant_cost_network.node[15].core_layer 	interests[15] 	0
scalar geant_cost_network.node[15].core_layer 	data[15] 	0
scalar geant_cost_network.node[15].content_store 	p_hit[15] 	-nan
scalar geant_cost_network.node[15].content_store 	hits[15] 	0
scalar geant_cost_network.node[15].content_store 	misses[15] 	0
scalar geant_cost_network.node[15].content_store 	decision_yes[15] 	0
scalar geant_cost_network.node[15].content_store 	decision_no[15] 	0
scalar geant_cost_network.node[15].content_store 	decision_ratio[15] 	0
scalar geant_cost_network.node[16].core_layer 	interests[16] 	0
scalar geant_cost_network.node[16].core_layer 	data[16] 	0
scalar geant_cost_network.node[16].content_store 	p_hit[16] 	-nan
scalar geant_cost_network.node[16].content_store 	hits[16] 	0
scalar geant_cost_network.node[16].content_store 	misses[16] 	0
scalar geant_cost_network.node[16].content_store 	decision_yes[16] 	0
scalar geant_cost_network.node[16].content_store 	decision_no[16] 	0
scalar geant_cost_network.node[16].content_store 	decision_ratio[16] 	0
scalar geant_cost_network.node[17].core_layer 	interests[17] 	0
scalar geant_cost_network.node[17].core_layer 	data[17] 	0
scalar geant_cost_network.node[17].content_store 	p_hit[17] 	-nan
scalar geant_cost_network.node[17].content_store 	hits[17] 	0
scalar geant_cost_network.node[17].content_store 	misses[17] 	0
scalar geant_cost_network.node[17].content_store 	decision_yes[17] 	0
scalar geant_cost_network.node[17].content_store 	decision_no[17] 	0
scalar geant_cost_network.node[17].content_store 	decision_ratio[17] 	0
scalar geant_cost_network.node[18].core_layer 	interests[18] 	115261
scalar geant_cost_network.node[18].core_layer 	data[18] 	115263
scalar geant_cost_network.node[18].content_store 	p_hit[18] 	0
scalar geant_cost_network.node[18].content_store 	hits[18] 	0
scalar geant_cost_network.node[18].content_store 	misses[18] 	115261
scalar geant_cost_network.node[18].content_store 	decision_yes[18] 	0
scalar geant_cost_network.node[18].content_store 	decision_no[18] 	115263
scalar geant_cost_network.node[18].content_store 	decision_ratio[18] 	0
scalar geant_cost_network.node[19].core_layer 	interests[19] 	0
scalar geant_cost_network.node[19].core_layer 	data[19] 	0
scalar geant_cost_network.node[19].content_store 	p_hit[19] 	-nan
scalar geant_cost_network.node[19].content_store 	hits[19] 	0
scalar geant_cost_network.node[19].content_store 	misses[19] 	0
scalar geant_cost_network.node[19].content_store 	decision_yes[19] 	0
scalar geant_cost_network.node[19].content_store 	decision_no[19] 	0
scalar geant_cost_network.node[19].content_store 	decision_ratio[19] 	0
scalar geant_cost_network.node[20].core_layer 	interests[20] 	180446
scalar geant_cost_network.node[20].core_layer 	data[20] 	179067
scalar geant_cost_network.node[20].content_store 	p_hit[20] 	0
scalar geant_cost_network.node[20].content_store 	hits[20] 	0
scalar geant_cost_network.node[20].content_store 	misses[20] 	180446
scalar geant_cost_network.node[20].content_store 	decision_yes[20] 	0
scalar geant_cost_network.node[20].content_store 	decision_no[20] 	179067
scalar geant_cost_network.node[20].content_store 	decision_ratio[20] 	0
scalar geant_cost_network.node[21].core_layer 	interests[21] 	313411
scalar geant_cost_network.node[21].core_layer 	data[21] 	313411
scalar geant_cost_network.node[21].content_store 	p_hit[21] 	0
scalar geant_cost_network.node[21].content_store 	hits[21] 	0
scalar geant_cost_network.node[21].content_store 	misses[21] 	313411
scalar geant_cost_network.node[21].content_store 	decision_yes[21] 	0
scalar geant_cost_network.node[21].content_store 	decision_no[21] 	313411
scalar geant_cost_network.node[21].content_store 	decision_ratio[21] 	0
scalar geant_cost_network.node[22].core_layer 	interests[22] 	333023
scalar geant_cost_network.node[22].core_layer 	repo_load[22] 	333023
scalar geant_cost_network.node[22].core_layer 	data[22] 	0
scalar geant_cost_network.node[22].content_store 	p_hit[22] 	0
scalar geant_cost_network.node[22].content_store 	hits[22] 	0
scalar geant_cost_network.node[22].content_store 	misses[22] 	333023
scalar geant_cost_network.node[22].content_store 	decision_yes[22] 	0
scalar geant_cost_network.node[22].content_store 	decision_no[22] 	333023
scalar geant_cost_network.node[22].content_store 	decision_ratio[22] 	0
scalar geant_cost_network.node[23].core_layer 	interests[23] 	243710
scalar geant_cost_network.node[23].core_layer 	repo_load[23] 	243710
scalar geant_cost_network.node[23].core_layer 	data[23] 	0
scalar geant_cost_network.node[23].content_store 	p_hit[23] 	0
scalar geant_cost_network.node[23].content_store 	hits[23] 	0
scalar geant_cost_network.node[23].content_store 	misses[23] 	243710
scalar geant_cost_network.node[23].content_store 	decision_yes[23] 	0
scalar geant_cost_network.node[23].content_store 	decision_no[23] 	243710
scalar geant_cost_network.node[23].content_store 	decision_ratio[23] 	0
scalar geant_cost_network.node[24].core_layer 	interests[24] 	313411
scalar geant_cost_network.node[24].core_layer 	repo_load[24] 	313411
scalar geant_cost_network.node[24].core_layer 	data[24] 	0
scalar geant_cost_network.node[24].content_store 	p_hit[24] 	0
scalar geant_cost_network.node[24].content_store 	hits[24] 	0
scalar geant_cost_network.node[24].content_store 	misses[24] 	313411
scalar geant_cost_network.node[24].content_store 	decision_yes[24] 	0
scalar geant_cost_network.node[24].content_store 	decision_no[24] 	313411
scalar geant_cost_network.node[24].content_store 	decision_ratio[24] 	0
scalar geant_cost_network.client[5] 	hdistance[5] 	4.2727487591587
scalar geant_cost_network.client[5] 	downloads[5] 	177702
scalar geant_cost_network.client[5] 	avg_time[5] 	0.010415665954
scalar geant_cost_network.client[5] 	interests_sent[5] 	179547
scalar geant_cost_network.client[9] 	hdistance[9] 	4.432464574051
scalar geant_cost_network.client[9] 	downloads[9] 	179106
scalar geant_cost_network.client[9] 	avg_time[9] 	0.004511364319
scalar geant_cost_network.client[9] 	interests_sent[9] 	180070
scalar geant_cost_network.client[10] 	hdistance[10] 	5.434911572515
scalar geant_cost_network.client[10] 	downloads[10] 	179356
scalar geant_cost_network.client[10] 	avg_time[10] 	0.006509245979
scalar geant_cost_network.client[10] 	interests_sent[10] 	180638
scalar geant_cost_network.client[12] 	hdistance[12] 	4.7265734265733
scalar geant_cost_network.client[12] 	downloads[12] 	178750
scalar geant_cost_network.client[12] 	avg_time[12] 	0.005301101033
scalar geant_cost_network.client[12] 	interests_sent[12] 	179895
scalar geant_cost_network.client[20] 	hdistance[20] 	4.5592376038018
scalar geant_cost_network.client[20] 	downloads[20] 	179067
scalar geant_cost_network.client[20] 	avg_time[20] 	0.007034900326
scalar geant_cost_network.client[20] 	interests_sent[20] 	180446
