version 2
run General-1764-20140502-04:30:28-10695
attr D costprob0.1
attr F nrr
attr R lru
attr a 0.8
attr configname General
attr csize 1e3
attr ctlg 1e5
attr datetime 20140502-04:30:28
attr experiment General
attr inifile omnetpp.ini
attr iterationvars "$net=three_caches_scenario_3_links, $rep=4, $priceratiovalue=1, $weights=0.2_0.4_0.4, $a=0.8, $ctlg=1e5, $F=nrr, $ttl=1000, $D=costprob0.1, $xi=1, $R=lru, $csize=1e3"
attr iterationvars2 "$net=three_caches_scenario_3_links, $rep=4, $priceratiovalue=1, $weights=0.2_0.4_0.4, $a=0.8, $ctlg=1e5, $F=nrr, $ttl=1000, $D=costprob0.1, $xi=1, $R=lru, $csize=1e3, $repetition=0"
attr measurement "$net=three_caches_scenario_3_links, $rep=4, $priceratiovalue=1, $weights=0.2_0.4_0.4, $a=0.8, $ctlg=1e5, $F=nrr, $ttl=1000, $D=costprob0.1, $xi=1, $R=lru, $csize=1e3"
attr net three_caches_scenario_3_links
attr network networks.${net=three_caches_scenario_3_links}_network
attr priceratiovalue 1
attr processid 10695
attr rep 4
attr repetition 0
attr replication #0
attr resultdir results
attr runnumber 1764
attr seedset 4
attr ttl 1000
attr weights 0.2_0.4_0.4
attr xi 1

scalar . 	a 	0.8
scalar . 	csize 	1e3
scalar . 	ctlg 	1e5
scalar . 	priceratiovalue 	1
scalar . 	rep 	4
scalar . 	ttl 	1000
scalar . 	xi 	1
scalar three_caches_scenario_3_links_network.content_distribution 	repo-0 	4
scalar three_caches_scenario_3_links_network.content_distribution 	repo-1 	5
scalar three_caches_scenario_3_links_network.content_distribution 	repo-2 	6
scalar three_caches_scenario_3_links_network.content_distribution 	client-0 	0
scalar three_caches_scenario_3_links_network.content_distribution 	repo-0_card 	20142
scalar three_caches_scenario_3_links_network.content_distribution 	repo-1_card 	39937
scalar three_caches_scenario_3_links_network.content_distribution 	repo-2_card 	39921
scalar three_caches_scenario_3_links_network.statistics 	p_hit 	0.062888517372223
scalar three_caches_scenario_3_links_network.statistics 	interests 	70667
scalar three_caches_scenario_3_links_network.statistics 	data 	44958.285714286
scalar three_caches_scenario_3_links_network.statistics 	hdistance 	2.3454192852896
scalar three_caches_scenario_3_links_network.statistics 	avg_time 	0
scalar three_caches_scenario_3_links_network.statistics 	downloads 	179961
scalar three_caches_scenario_3_links_network.statistics 	total_cost 	107376
scalar three_caches_scenario_3_links_network.statistics 	total_replicas 	100000
scalar three_caches_scenario_3_links_network.statistics 	interests_sent 	179961
scalar three_caches_scenario_3_links_network.node[0].core_layer 	interests[0] 	179961
scalar three_caches_scenario_3_links_network.node[0].core_layer 	data[0] 	165856
scalar three_caches_scenario_3_links_network.node[0].core_layer 	repo_int[0] 	148852
scalar three_caches_scenario_3_links_network.node[0].content_store 	p_hit[0] 	0.078378093031268
scalar three_caches_scenario_3_links_network.node[0].content_store 	hits[0] 	14105
scalar three_caches_scenario_3_links_network.node[0].content_store 	misses[0] 	165856
scalar three_caches_scenario_3_links_network.node[0].content_store 	decision_yes[0] 	13482
scalar three_caches_scenario_3_links_network.node[0].content_store 	decision_no[0] 	152374
scalar three_caches_scenario_3_links_network.node[1].core_layer 	interests[1] 	41476
scalar three_caches_scenario_3_links_network.node[1].core_layer 	data[1] 	41476
scalar three_caches_scenario_3_links_network.node[1].content_store 	p_hit[1] 	0
scalar three_caches_scenario_3_links_network.node[1].content_store 	hits[1] 	0
scalar three_caches_scenario_3_links_network.node[1].content_store 	misses[1] 	41476
scalar three_caches_scenario_3_links_network.node[1].content_store 	decision_yes[1] 	0
scalar three_caches_scenario_3_links_network.node[1].content_store 	decision_no[1] 	41476
scalar three_caches_scenario_3_links_network.node[2].core_layer 	interests[2] 	63133
scalar three_caches_scenario_3_links_network.node[2].core_layer 	data[2] 	54266
scalar three_caches_scenario_3_links_network.node[2].content_store 	p_hit[2] 	0.14044952718863
scalar three_caches_scenario_3_links_network.node[2].content_store 	hits[2] 	8867
scalar three_caches_scenario_3_links_network.node[2].content_store 	misses[2] 	54266
scalar three_caches_scenario_3_links_network.node[2].content_store 	decision_yes[2] 	6838
scalar three_caches_scenario_3_links_network.node[2].content_store 	decision_no[2] 	47428
scalar three_caches_scenario_3_links_network.node[3].core_layer 	interests[3] 	61247
scalar three_caches_scenario_3_links_network.node[3].core_layer 	data[3] 	53110
scalar three_caches_scenario_3_links_network.node[3].content_store 	p_hit[3] 	0.13285548679935
scalar three_caches_scenario_3_links_network.node[3].content_store 	hits[3] 	8137
scalar three_caches_scenario_3_links_network.node[3].content_store 	misses[3] 	53110
scalar three_caches_scenario_3_links_network.node[3].content_store 	decision_yes[3] 	6532
scalar three_caches_scenario_3_links_network.node[3].content_store 	decision_no[3] 	46578
scalar three_caches_scenario_3_links_network.node[4].core_layer 	interests[4] 	41476
scalar three_caches_scenario_3_links_network.node[4].core_layer 	repo_load[4] 	41476
scalar three_caches_scenario_3_links_network.node[4].core_layer 	data[4] 	0
scalar three_caches_scenario_3_links_network.node[4].content_store 	p_hit[4] 	0
scalar three_caches_scenario_3_links_network.node[4].content_store 	hits[4] 	0
scalar three_caches_scenario_3_links_network.node[4].content_store 	misses[4] 	41476
scalar three_caches_scenario_3_links_network.node[4].content_store 	decision_yes[4] 	0
scalar three_caches_scenario_3_links_network.node[4].content_store 	decision_no[4] 	41476
scalar three_caches_scenario_3_links_network.node[5].core_layer 	interests[5] 	54266
scalar three_caches_scenario_3_links_network.node[5].core_layer 	repo_load[5] 	54266
scalar three_caches_scenario_3_links_network.node[5].core_layer 	data[5] 	0
scalar three_caches_scenario_3_links_network.node[5].content_store 	p_hit[5] 	0
scalar three_caches_scenario_3_links_network.node[5].content_store 	hits[5] 	0
scalar three_caches_scenario_3_links_network.node[5].content_store 	misses[5] 	54266
scalar three_caches_scenario_3_links_network.node[5].content_store 	decision_yes[5] 	0
scalar three_caches_scenario_3_links_network.node[5].content_store 	decision_no[5] 	54266
scalar three_caches_scenario_3_links_network.node[6].core_layer 	interests[6] 	53110
scalar three_caches_scenario_3_links_network.node[6].core_layer 	repo_load[6] 	53110
scalar three_caches_scenario_3_links_network.node[6].core_layer 	data[6] 	0
scalar three_caches_scenario_3_links_network.node[6].content_store 	p_hit[6] 	0
scalar three_caches_scenario_3_links_network.node[6].content_store 	hits[6] 	0
scalar three_caches_scenario_3_links_network.node[6].content_store 	misses[6] 	53110
scalar three_caches_scenario_3_links_network.node[6].content_store 	decision_yes[6] 	0
scalar three_caches_scenario_3_links_network.node[6].content_store 	decision_no[6] 	53110
scalar three_caches_scenario_3_links_network.client[0] 	hdistance[0] 	2.3454192852896
scalar three_caches_scenario_3_links_network.client[0] 	downloads[0] 	179961
scalar three_caches_scenario_3_links_network.client[0] 	avg_time[0] 	0
scalar three_caches_scenario_3_links_network.client[0] 	interests_sent[0] 	179961
