version 2
run General-5851-20140425-08:44:36-18873
attr D costprob0.0002
attr F nrr
attr R lru
attr a 0
attr configname General
attr csize 9
attr ctlg 10^3
attr datetime 20140425-08:44:36
attr experiment General
attr inifile omnetpp.ini
attr iterationvars "$net=one_cache_scenario, $rep=14, $priceratiovalue=10, $a=0, $ctlg=10^3, $F=nrr, $ttl=1000, $D=costprob0.0002, $R=lru, $csize=9"
attr iterationvars2 "$net=one_cache_scenario, $rep=14, $priceratiovalue=10, $a=0, $ctlg=10^3, $F=nrr, $ttl=1000, $D=costprob0.0002, $R=lru, $csize=9, $repetition=0"
attr measurement "$net=one_cache_scenario, $rep=14, $priceratiovalue=10, $a=0, $ctlg=10^3, $F=nrr, $ttl=1000, $D=costprob0.0002, $R=lru, $csize=9"
attr net one_cache_scenario
attr network networks.${net=one_cache_scenario}_network
attr priceratiovalue 10
attr processid 18873
attr rep 14
attr repetition 0
attr replication #0
attr resultdir results
attr runnumber 5851
attr seedset 14
attr ttl 1000

scalar . 	a 	0
scalar . 	csize 	9
scalar . 	priceratiovalue 	10
scalar . 	rep 	14
scalar . 	ttl 	1000
scalar one_cache_scenario_network.content_distribution 	repo-0 	3
scalar one_cache_scenario_network.content_distribution 	repo-1 	4
scalar one_cache_scenario_network.content_distribution 	client-0 	0
scalar one_cache_scenario_network.content_distribution 	repo-0_card 	497
scalar one_cache_scenario_network.content_distribution 	repo-1_card 	503
scalar one_cache_scenario_network.statistics 	p_hit 	0.0029455135843661
scalar one_cache_scenario_network.statistics 	interests 	107417.6
scalar one_cache_scenario_network.statistics 	data 	71400.8
scalar one_cache_scenario_network.statistics 	hdistance 	1.9824304213589
scalar one_cache_scenario_network.statistics 	avg_time 	0
scalar one_cache_scenario_network.statistics 	downloads 	180084
scalar one_cache_scenario_network.statistics 	total_cost 	89214
scalar one_cache_scenario_network.statistics 	interests_sent 	180084
scalar one_cache_scenario_network.node[0].core_layer 	interests[0] 	180084
scalar one_cache_scenario_network.node[0].core_layer 	data[0] 	178502
scalar one_cache_scenario_network.node[0].core_layer 	repo_int[0] 	178502
scalar one_cache_scenario_network.node[0].content_store 	p_hit[0] 	0.0087847893205393
scalar one_cache_scenario_network.node[0].content_store 	hits[0] 	1582
scalar one_cache_scenario_network.node[0].content_store 	misses[0] 	178502
scalar one_cache_scenario_network.node[0].content_store 	decision_yes[0] 	25
scalar one_cache_scenario_network.node[0].content_store 	decision_no[0] 	178477
scalar one_cache_scenario_network.node[1].core_layer 	interests[1] 	89295
scalar one_cache_scenario_network.node[1].core_layer 	data[1] 	89295
scalar one_cache_scenario_network.node[1].content_store 	p_hit[1] 	0
scalar one_cache_scenario_network.node[1].content_store 	hits[1] 	0
scalar one_cache_scenario_network.node[1].content_store 	misses[1] 	89295
scalar one_cache_scenario_network.node[1].content_store 	decision_yes[1] 	0
scalar one_cache_scenario_network.node[1].content_store 	decision_no[1] 	89295
scalar one_cache_scenario_network.node[2].core_layer 	interests[2] 	89207
scalar one_cache_scenario_network.node[2].core_layer 	data[2] 	89207
scalar one_cache_scenario_network.node[2].content_store 	p_hit[2] 	0
scalar one_cache_scenario_network.node[2].content_store 	hits[2] 	0
scalar one_cache_scenario_network.node[2].content_store 	misses[2] 	89207
scalar one_cache_scenario_network.node[2].content_store 	decision_yes[2] 	0
scalar one_cache_scenario_network.node[2].content_store 	decision_no[2] 	89207
scalar one_cache_scenario_network.node[3].core_layer 	interests[3] 	89295
scalar one_cache_scenario_network.node[3].core_layer 	repo_load[3] 	89295
scalar one_cache_scenario_network.node[3].core_layer 	data[3] 	0
scalar one_cache_scenario_network.node[3].content_store 	p_hit[3] 	0
scalar one_cache_scenario_network.node[3].content_store 	hits[3] 	0
scalar one_cache_scenario_network.node[3].content_store 	misses[3] 	89295
scalar one_cache_scenario_network.node[3].content_store 	decision_yes[3] 	0
scalar one_cache_scenario_network.node[3].content_store 	decision_no[3] 	89295
scalar one_cache_scenario_network.node[4].core_layer 	interests[4] 	89207
scalar one_cache_scenario_network.node[4].core_layer 	repo_load[4] 	89207
scalar one_cache_scenario_network.node[4].core_layer 	data[4] 	0
scalar one_cache_scenario_network.node[4].content_store 	p_hit[4] 	0
scalar one_cache_scenario_network.node[4].content_store 	hits[4] 	0
scalar one_cache_scenario_network.node[4].content_store 	misses[4] 	89207
scalar one_cache_scenario_network.node[4].content_store 	decision_yes[4] 	0
scalar one_cache_scenario_network.node[4].content_store 	decision_no[4] 	89207
scalar one_cache_scenario_network.client[0] 	hdistance[0] 	1.9824304213589
scalar one_cache_scenario_network.client[0] 	downloads[0] 	180084
scalar one_cache_scenario_network.client[0] 	avg_time[0] 	0
scalar one_cache_scenario_network.client[0] 	interests_sent[0] 	180084
