version 2
run General-37-20140626-18:03:39-10917
attr D lce
attr F spr
attr R lru
attr a 1
attr configname General
attr csize 1e3
attr ctlg 1e5
attr datetime 20140626-18:03:39
attr experiment General
attr inifile omnetpp.ini
attr iterationvars "$net=abilene_cost, $rep=5, $priceratiovalue=10, $weights=0.333_0.333_0.334, $lambda=100, $a=1, $ctlg=1e5, $F=spr, $ttl=1000, $D=lce, $xi=1, $R=lru, $csize=1e3, $pricebits=0, $mytime=1800"
attr iterationvars2 "$net=abilene_cost, $rep=5, $priceratiovalue=10, $weights=0.333_0.333_0.334, $lambda=100, $a=1, $ctlg=1e5, $F=spr, $ttl=1000, $D=lce, $xi=1, $R=lru, $csize=1e3, $pricebits=0, $mytime=1800, $repetition=0"
attr lambda 100
attr measurement "$net=abilene_cost, $rep=5, $priceratiovalue=10, $weights=0.333_0.333_0.334, $lambda=100, $a=1, $ctlg=1e5, $F=spr, $ttl=1000, $D=lce, $xi=1, $R=lru, $csize=1e3, $pricebits=0, $mytime=1800"
attr mytime 1800
attr net abilene_cost
attr network "networks.${net=geant_cost, abilene_cost}_network"
attr pricebits 0
attr priceratiovalue 10
attr processid 10917
attr rep 5
attr repetition 0
attr replication #0
attr resultdir results
attr runnumber 37
attr seedset 5
attr ttl 1000
attr weights 0.333_0.333_0.334
attr xi 1

scalar . 	a 	1
scalar . 	csize 	1e3
scalar . 	ctlg 	1e5
scalar . 	lambda 	100
scalar . 	mytime 	1800
scalar . 	pricebits 	0
scalar . 	priceratiovalue 	10
scalar . 	rep 	5
scalar . 	ttl 	1000
scalar . 	xi 	1
scalar abilene_cost_network.content_distribution 	repo-0 	11
scalar abilene_cost_network.content_distribution 	repo-1 	12
scalar abilene_cost_network.content_distribution 	repo-2 	13
scalar abilene_cost_network.content_distribution 	client-0 	5
scalar abilene_cost_network.content_distribution 	client-1 	0
scalar abilene_cost_network.content_distribution 	client-2 	9
scalar abilene_cost_network.content_distribution 	repo-0_card 	33102
scalar abilene_cost_network.content_distribution 	repo-1_card 	33495
scalar abilene_cost_network.content_distribution 	repo-2_card 	33403
scalar abilene_cost_network.statistics 	repo_popularity[0] 	0.44346789261525
scalar abilene_cost_network.statistics 	repo_popularity[1] 	0.29134602320581
scalar abilene_cost_network.statistics 	repo_popularity[2] 	0.26518608417894
scalar abilene_cost_network.statistics 	stabilization_time 	64.2
scalar abilene_cost_network.node[1].face$o[4].channel 	price[1] 	0
scalar abilene_cost_network.node[1].face$o[4].channel 	represented_price[1] 	0
scalar abilene_cost_network.node[7].face$o[4].channel 	price[7] 	0
scalar abilene_cost_network.node[7].face$o[4].channel 	represented_price[7] 	0
scalar abilene_cost_network.node[10].face$o[4].channel 	price[10] 	0
scalar abilene_cost_network.node[10].face$o[4].channel 	represented_price[10] 	0
scalar abilene_cost_network.node[11].face$o[1].channel 	price[11] 	0
scalar abilene_cost_network.node[11].face$o[1].channel 	represented_price[11] 	0
scalar abilene_cost_network.node[12].face$o[1].channel 	price[12] 	1
scalar abilene_cost_network.node[12].face$o[1].channel 	represented_price[12] 	1
scalar abilene_cost_network.node[13].face$o[1].channel 	price[13] 	10
scalar abilene_cost_network.node[13].face$o[1].channel 	represented_price[13] 	10
scalar abilene_cost_network.statistics 	p_hit 	0.10651800574807
scalar abilene_cost_network.statistics 	interests 	129434.85714286
scalar abilene_cost_network.statistics 	data 	90853.357142857
scalar abilene_cost_network.statistics 	hdistance 	2.9990474659552
scalar abilene_cost_network.statistics 	avg_time 	0.011113822606
scalar abilene_cost_network.statistics 	downloads 	539596
scalar abilene_cost_network.statistics 	total_cost 	1302697
scalar abilene_cost_network.statistics 	total_replicas 	100000
scalar abilene_cost_network.statistics 	inner_hit 	0.35771206606424
scalar abilene_cost_network.statistics 	interests_sent 	540133
scalar abilene_cost_network.node[0].core_layer 	interests[0] 	179989
scalar abilene_cost_network.node[0].core_layer 	data[0] 	129414
scalar abilene_cost_network.node[0].core_layer 	repo_int[0] 	346576
scalar abilene_cost_network.node[0].content_store 	p_hit[0] 	0.28001711215685
scalar abilene_cost_network.node[0].content_store 	hits[0] 	50400
scalar abilene_cost_network.node[0].content_store 	misses[0] 	129589
scalar abilene_cost_network.node[0].content_store 	decision_yes[0] 	129414
scalar abilene_cost_network.node[0].content_store 	decision_no[0] 	0
scalar abilene_cost_network.node[0].content_store 	decision_ratio[0] 	1
scalar abilene_cost_network.node[1].core_layer 	interests[1] 	212276
scalar abilene_cost_network.node[1].core_layer 	data[1] 	204121
scalar abilene_cost_network.node[1].content_store 	p_hit[1] 	0.038407544894383
scalar abilene_cost_network.node[1].content_store 	hits[1] 	8153
scalar abilene_cost_network.node[1].content_store 	misses[1] 	204123
scalar abilene_cost_network.node[1].content_store 	decision_yes[1] 	204121
scalar abilene_cost_network.node[1].content_store 	decision_no[1] 	0
scalar abilene_cost_network.node[1].content_store 	decision_ratio[1] 	1
scalar abilene_cost_network.node[2].core_layer 	interests[2] 	126159
scalar abilene_cost_network.node[2].core_layer 	data[2] 	125897
scalar abilene_cost_network.node[2].content_store 	p_hit[2] 	0.0020688179202435
scalar abilene_cost_network.node[2].content_store 	hits[2] 	261
scalar abilene_cost_network.node[2].content_store 	misses[2] 	125898
scalar abilene_cost_network.node[2].content_store 	decision_yes[2] 	125897
scalar abilene_cost_network.node[2].content_store 	decision_no[2] 	0
scalar abilene_cost_network.node[2].content_store 	decision_ratio[2] 	1
scalar abilene_cost_network.node[3].core_layer 	interests[3] 	125898
scalar abilene_cost_network.node[3].core_layer 	data[3] 	125895
scalar abilene_cost_network.node[3].content_store 	p_hit[3] 	0
scalar abilene_cost_network.node[3].content_store 	hits[3] 	0
scalar abilene_cost_network.node[3].content_store 	misses[3] 	125898
scalar abilene_cost_network.node[3].content_store 	decision_yes[3] 	125895
scalar abilene_cost_network.node[3].content_store 	decision_no[3] 	0
scalar abilene_cost_network.node[3].content_store 	decision_ratio[3] 	1
scalar abilene_cost_network.node[4].core_layer 	interests[4] 	88112
scalar abilene_cost_network.node[4].core_layer 	data[4] 	84724
scalar abilene_cost_network.node[4].content_store 	p_hit[4] 	0.03842836390049
scalar abilene_cost_network.node[4].content_store 	hits[4] 	3386
scalar abilene_cost_network.node[4].content_store 	misses[4] 	84726
scalar abilene_cost_network.node[4].content_store 	decision_yes[4] 	84724
scalar abilene_cost_network.node[4].content_store 	decision_no[4] 	0
scalar abilene_cost_network.node[4].content_store 	decision_ratio[4] 	1
scalar abilene_cost_network.node[5].core_layer 	interests[5] 	180282
scalar abilene_cost_network.node[5].core_layer 	data[5] 	129540
scalar abilene_cost_network.node[5].content_store 	p_hit[5] 	0.28021654962781
scalar abilene_cost_network.node[5].content_store 	hits[5] 	50518
scalar abilene_cost_network.node[5].content_store 	misses[5] 	129764
scalar abilene_cost_network.node[5].content_store 	decision_yes[5] 	129540
scalar abilene_cost_network.node[5].content_store 	decision_no[5] 	0
scalar abilene_cost_network.node[5].content_store 	decision_ratio[5] 	1
scalar abilene_cost_network.node[6].core_layer 	interests[6] 	41431
scalar abilene_cost_network.node[6].core_layer 	data[6] 	36631
scalar abilene_cost_network.node[6].content_store 	p_hit[6] 	0.11583114093312
scalar abilene_cost_network.node[6].content_store 	hits[6] 	4799
scalar abilene_cost_network.node[6].content_store 	misses[6] 	36632
scalar abilene_cost_network.node[6].content_store 	decision_yes[6] 	36631
scalar abilene_cost_network.node[6].content_store 	decision_no[6] 	0
scalar abilene_cost_network.node[6].content_store 	decision_ratio[6] 	1
scalar abilene_cost_network.node[7].core_layer 	interests[7] 	114597
scalar abilene_cost_network.node[7].core_layer 	data[7] 	107467
scalar abilene_cost_network.node[7].content_store 	p_hit[7] 	0.062218033630898
scalar abilene_cost_network.node[7].content_store 	hits[7] 	7130
scalar abilene_cost_network.node[7].content_store 	misses[7] 	107467
scalar abilene_cost_network.node[7].content_store 	decision_yes[7] 	107467
scalar abilene_cost_network.node[7].content_store 	decision_no[7] 	0
scalar abilene_cost_network.node[7].content_store 	decision_ratio[7] 	1
scalar abilene_cost_network.node[8].core_layer 	interests[8] 	41630
scalar abilene_cost_network.node[8].core_layer 	data[8] 	36795
scalar abilene_cost_network.node[8].content_store 	p_hit[8] 	0.11616622627913
scalar abilene_cost_network.node[8].content_store 	hits[8] 	4836
scalar abilene_cost_network.node[8].content_store 	misses[8] 	36794
scalar abilene_cost_network.node[8].content_store 	decision_yes[8] 	36795
scalar abilene_cost_network.node[8].content_store 	decision_no[8] 	0
scalar abilene_cost_network.node[8].content_store 	decision_ratio[8] 	1
scalar abilene_cost_network.node[9].core_layer 	interests[9] 	179862
scalar abilene_cost_network.node[9].core_layer 	data[9] 	128883
scalar abilene_cost_network.node[9].content_store 	p_hit[9] 	0.28266671114521
scalar abilene_cost_network.node[9].content_store 	hits[9] 	50841
scalar abilene_cost_network.node[9].content_store 	misses[9] 	129021
scalar abilene_cost_network.node[9].content_store 	decision_yes[9] 	128883
scalar abilene_cost_network.node[9].content_store 	decision_no[9] 	0
scalar abilene_cost_network.node[9].content_store 	decision_ratio[9] 	1
scalar abilene_cost_network.node[10].core_layer 	interests[10] 	175276
scalar abilene_cost_network.node[10].core_layer 	data[10] 	162580
scalar abilene_cost_network.node[10].content_store 	p_hit[10] 	0.072434332139026
scalar abilene_cost_network.node[10].content_store 	hits[10] 	12696
scalar abilene_cost_network.node[10].content_store 	misses[10] 	162580
scalar abilene_cost_network.node[10].content_store 	decision_yes[10] 	162580
scalar abilene_cost_network.node[10].content_store 	decision_no[10] 	0
scalar abilene_cost_network.node[10].content_store 	decision_ratio[10] 	1
scalar abilene_cost_network.node[11].core_layer 	interests[11] 	119586
scalar abilene_cost_network.node[11].core_layer 	repo_load[11] 	119586
scalar abilene_cost_network.node[11].core_layer 	data[11] 	0
scalar abilene_cost_network.node[11].content_store 	p_hit[11] 	0
scalar abilene_cost_network.node[11].content_store 	hits[11] 	0
scalar abilene_cost_network.node[11].content_store 	misses[11] 	119586
scalar abilene_cost_network.node[11].content_store 	decision_yes[11] 	0
scalar abilene_cost_network.node[11].content_store 	decision_no[11] 	119586
scalar abilene_cost_network.node[11].content_store 	decision_ratio[11] 	0
scalar abilene_cost_network.node[12].core_layer 	interests[12] 	107467
scalar abilene_cost_network.node[12].core_layer 	repo_load[12] 	107467
scalar abilene_cost_network.node[12].core_layer 	data[12] 	0
scalar abilene_cost_network.node[12].content_store 	p_hit[12] 	0
scalar abilene_cost_network.node[12].content_store 	hits[12] 	0
scalar abilene_cost_network.node[12].content_store 	misses[12] 	107467
scalar abilene_cost_network.node[12].content_store 	decision_yes[12] 	0
scalar abilene_cost_network.node[12].content_store 	decision_no[12] 	107467
scalar abilene_cost_network.node[12].content_store 	decision_ratio[12] 	0
scalar abilene_cost_network.node[13].core_layer 	interests[13] 	119523
scalar abilene_cost_network.node[13].core_layer 	repo_load[13] 	119523
scalar abilene_cost_network.node[13].core_layer 	data[13] 	0
scalar abilene_cost_network.node[13].content_store 	p_hit[13] 	0
scalar abilene_cost_network.node[13].content_store 	hits[13] 	0
scalar abilene_cost_network.node[13].content_store 	misses[13] 	119523
scalar abilene_cost_network.node[13].content_store 	decision_yes[13] 	0
scalar abilene_cost_network.node[13].content_store 	decision_no[13] 	119523
scalar abilene_cost_network.node[13].content_store 	decision_ratio[13] 	0
scalar abilene_cost_network.client[0] 	hdistance[0] 	2.7334745904101
scalar abilene_cost_network.client[0] 	downloads[0] 	179814
scalar abilene_cost_network.client[0] 	avg_time[0] 	0.010592671976
scalar abilene_cost_network.client[0] 	interests_sent[0] 	179989
scalar abilene_cost_network.client[5] 	hdistance[5] 	3.825050816959
scalar abilene_cost_network.client[5] 	downloads[5] 	180058
scalar abilene_cost_network.client[5] 	avg_time[5] 	0.01376271971
scalar abilene_cost_network.client[5] 	interests_sent[5] 	180282
scalar abilene_cost_network.client[9] 	hdistance[9] 	2.4386169904965
scalar abilene_cost_network.client[9] 	downloads[9] 	179724
scalar abilene_cost_network.client[9] 	avg_time[9] 	0.008986076132
scalar abilene_cost_network.client[9] 	interests_sent[9] 	179862
