version 2
run General-45-20140627-19:49:18-15450
attr D lce
attr F spr
attr R lru
attr a 1
attr configname General
attr csize 1e3
attr ctlg 1e5
attr datetime 20140627-19:49:18
attr experiment General
attr inifile omnetpp.ini
attr iterationvars "$net=abilene_cost, $rep=20, $priceratiovalue=10, $weights=0.333_0.333_0.334, $lambda=100, $a=1, $ctlg=1e5, $F=spr, $ttl=1000, $D=lce, $xi=1, $R=lru, $csize=1e3, $pricebits=0, $window=60, $variance=0.05, $mytime=1800"
attr iterationvars2 "$net=abilene_cost, $rep=20, $priceratiovalue=10, $weights=0.333_0.333_0.334, $lambda=100, $a=1, $ctlg=1e5, $F=spr, $ttl=1000, $D=lce, $xi=1, $R=lru, $csize=1e3, $pricebits=0, $window=60, $variance=0.05, $mytime=1800, $repetition=0"
attr lambda 100
attr measurement "$net=abilene_cost, $rep=20, $priceratiovalue=10, $weights=0.333_0.333_0.334, $lambda=100, $a=1, $ctlg=1e5, $F=spr, $ttl=1000, $D=lce, $xi=1, $R=lru, $csize=1e3, $pricebits=0, $window=60, $variance=0.05, $mytime=1800"
attr mytime 1800
attr net abilene_cost
attr network "networks.${net=geant_cost, abilene_cost}_network"
attr pricebits 0
attr priceratiovalue 10
attr processid 15450
attr rep 20
attr repetition 0
attr replication #0
attr resultdir results
attr runnumber 45
attr seedset 20
attr ttl 1000
attr variance 0.05
attr weights 0.333_0.333_0.334
attr window 60
attr xi 1

scalar . 	a 	1
scalar . 	csize 	1e3
scalar . 	ctlg 	1e5
scalar . 	lambda 	100
scalar . 	mytime 	1800
scalar . 	pricebits 	0
scalar . 	priceratiovalue 	10
scalar . 	rep 	20
scalar . 	ttl 	1000
scalar . 	variance 	0.05
scalar . 	window 	60
scalar . 	xi 	1
scalar abilene_cost_network.content_distribution 	repo-0 	11
scalar abilene_cost_network.content_distribution 	repo-1 	12
scalar abilene_cost_network.content_distribution 	repo-2 	13
scalar abilene_cost_network.content_distribution 	client-0 	5
scalar abilene_cost_network.content_distribution 	client-1 	0
scalar abilene_cost_network.content_distribution 	client-2 	9
scalar abilene_cost_network.content_distribution 	repo-0_card 	33321
scalar abilene_cost_network.content_distribution 	repo-1_card 	33296
scalar abilene_cost_network.content_distribution 	repo-2_card 	33383
scalar abilene_cost_network.statistics 	repo_popularity[0] 	0.30078651597297
scalar abilene_cost_network.statistics 	repo_popularity[1] 	0.29276091736323
scalar abilene_cost_network.statistics 	repo_popularity[2] 	0.4064525666638
scalar abilene_cost_network.statistics 	stabilization_time 	63.6
scalar abilene_cost_network.node[1].face$o[4].channel 	price[1] 	0
scalar abilene_cost_network.node[1].face$o[4].channel 	represented_price[1] 	0
scalar abilene_cost_network.node[7].face$o[4].channel 	price[7] 	0
scalar abilene_cost_network.node[7].face$o[4].channel 	represented_price[7] 	0
scalar abilene_cost_network.node[10].face$o[4].channel 	price[10] 	0
scalar abilene_cost_network.node[10].face$o[4].channel 	represented_price[10] 	0
scalar abilene_cost_network.node[11].face$o[1].channel 	price[11] 	0
scalar abilene_cost_network.node[11].face$o[1].channel 	represented_price[11] 	0
scalar abilene_cost_network.node[12].face$o[1].channel 	price[12] 	1
scalar abilene_cost_network.node[12].face$o[1].channel 	represented_price[12] 	1
scalar abilene_cost_network.node[13].face$o[1].channel 	price[13] 	10
scalar abilene_cost_network.node[13].face$o[1].channel 	represented_price[13] 	10
scalar abilene_cost_network.statistics 	p_hit 	0.10689432290252
scalar abilene_cost_network.statistics 	interests 	129627.35714286
scalar abilene_cost_network.statistics 	data 	90954.428571429
scalar abilene_cost_network.statistics 	hdistance 	2.9973101767494
scalar abilene_cost_network.statistics 	avg_time 	0.011146594444
scalar abilene_cost_network.statistics 	downloads 	540857
scalar abilene_cost_network.statistics 	total_cost 	1309006
scalar abilene_cost_network.statistics 	total_replicas 	100000
scalar abilene_cost_network.statistics 	inner_hit 	0.358667817926
scalar abilene_cost_network.statistics 	interests_sent 	541418
scalar abilene_cost_network.node[0].core_layer 	interests[0] 	180162
scalar abilene_cost_network.node[0].core_layer 	data[0] 	129216
scalar abilene_cost_network.node[0].core_layer 	repo_int[0] 	346869
scalar abilene_cost_network.node[0].content_store 	p_hit[0] 	0.28164651813368
scalar abilene_cost_network.node[0].content_store 	hits[0] 	50742
scalar abilene_cost_network.node[0].content_store 	misses[0] 	129420
scalar abilene_cost_network.node[0].content_store 	decision_yes[0] 	129216
scalar abilene_cost_network.node[0].content_store 	decision_no[0] 	0
scalar abilene_cost_network.node[0].content_store 	decision_ratio[0] 	1
scalar abilene_cost_network.node[1].core_layer 	interests[1] 	213031
scalar abilene_cost_network.node[1].core_layer 	data[1] 	204275
scalar abilene_cost_network.node[1].content_store 	p_hit[1] 	0.041101999239547
scalar abilene_cost_network.node[1].content_store 	hits[1] 	8756
scalar abilene_cost_network.node[1].content_store 	misses[1] 	204275
scalar abilene_cost_network.node[1].content_store 	decision_yes[1] 	204275
scalar abilene_cost_network.node[1].content_store 	decision_no[1] 	0
scalar abilene_cost_network.node[1].content_store 	decision_ratio[1] 	1
scalar abilene_cost_network.node[2].core_layer 	interests[2] 	126040
scalar abilene_cost_network.node[2].core_layer 	data[2] 	125662
scalar abilene_cost_network.node[2].content_store 	p_hit[2] 	0.0029990479212948
scalar abilene_cost_network.node[2].content_store 	hits[2] 	378
scalar abilene_cost_network.node[2].content_store 	misses[2] 	125662
scalar abilene_cost_network.node[2].content_store 	decision_yes[2] 	125662
scalar abilene_cost_network.node[2].content_store 	decision_no[2] 	0
scalar abilene_cost_network.node[2].content_store 	decision_ratio[2] 	1
scalar abilene_cost_network.node[3].core_layer 	interests[3] 	125662
scalar abilene_cost_network.node[3].core_layer 	data[3] 	125656
scalar abilene_cost_network.node[3].content_store 	p_hit[3] 	4.7747131193201e-05
scalar abilene_cost_network.node[3].content_store 	hits[3] 	6
scalar abilene_cost_network.node[3].content_store 	misses[3] 	125656
scalar abilene_cost_network.node[3].content_store 	decision_yes[3] 	125656
scalar abilene_cost_network.node[3].content_store 	decision_no[3] 	0
scalar abilene_cost_network.node[3].content_store 	decision_ratio[3] 	1
scalar abilene_cost_network.node[4].core_layer 	interests[4] 	85376
scalar abilene_cost_network.node[4].core_layer 	data[4] 	82161
scalar abilene_cost_network.node[4].content_store 	p_hit[4] 	0.037656952773613
scalar abilene_cost_network.node[4].content_store 	hits[4] 	3215
scalar abilene_cost_network.node[4].content_store 	misses[4] 	82161
scalar abilene_cost_network.node[4].content_store 	decision_yes[4] 	82161
scalar abilene_cost_network.node[4].content_store 	decision_no[4] 	0
scalar abilene_cost_network.node[4].content_store 	decision_ratio[4] 	1
scalar abilene_cost_network.node[5].core_layer 	interests[5] 	179881
scalar abilene_cost_network.node[5].core_layer 	data[5] 	129197
scalar abilene_cost_network.node[5].content_store 	p_hit[5] 	0.28073003819192
scalar abilene_cost_network.node[5].content_store 	hits[5] 	50498
scalar abilene_cost_network.node[5].content_store 	misses[5] 	129383
scalar abilene_cost_network.node[5].content_store 	decision_yes[5] 	129197
scalar abilene_cost_network.node[5].content_store 	decision_no[5] 	0
scalar abilene_cost_network.node[5].content_store 	decision_ratio[5] 	1
scalar abilene_cost_network.node[6].core_layer 	interests[6] 	43821
scalar abilene_cost_network.node[6].core_layer 	data[6] 	37796
scalar abilene_cost_network.node[6].content_store 	p_hit[6] 	0.13749115720773
scalar abilene_cost_network.node[6].content_store 	hits[6] 	6025
scalar abilene_cost_network.node[6].content_store 	misses[6] 	37796
scalar abilene_cost_network.node[6].content_store 	decision_yes[6] 	37796
scalar abilene_cost_network.node[6].content_store 	decision_no[6] 	0
scalar abilene_cost_network.node[6].content_store 	decision_ratio[6] 	1
scalar abilene_cost_network.node[7].core_layer 	interests[7] 	119380
scalar abilene_cost_network.node[7].core_layer 	data[7] 	111206
scalar abilene_cost_network.node[7].content_store 	p_hit[7] 	0.068470430557882
scalar abilene_cost_network.node[7].content_store 	hits[7] 	8174
scalar abilene_cost_network.node[7].content_store 	misses[7] 	111206
scalar abilene_cost_network.node[7].content_store 	decision_yes[7] 	111206
scalar abilene_cost_network.node[7].content_store 	decision_no[7] 	0
scalar abilene_cost_network.node[7].content_store 	decision_ratio[7] 	1
scalar abilene_cost_network.node[8].core_layer 	interests[8] 	44142
scalar abilene_cost_network.node[8].core_layer 	data[8] 	38088
scalar abilene_cost_network.node[8].content_store 	p_hit[8] 	0.13712563998006
scalar abilene_cost_network.node[8].content_store 	hits[8] 	6053
scalar abilene_cost_network.node[8].content_store 	misses[8] 	38089
scalar abilene_cost_network.node[8].content_store 	decision_yes[8] 	38088
scalar abilene_cost_network.node[8].content_store 	decision_no[8] 	0
scalar abilene_cost_network.node[8].content_store 	decision_ratio[8] 	1
scalar abilene_cost_network.node[9].core_layer 	interests[9] 	181375
scalar abilene_cost_network.node[9].core_layer 	data[9] 	130479
scalar abilene_cost_network.node[9].content_store 	p_hit[9] 	0.27966919365955
scalar abilene_cost_network.node[9].content_store 	hits[9] 	50725
scalar abilene_cost_network.node[9].content_store 	misses[9] 	130650
scalar abilene_cost_network.node[9].content_store 	decision_yes[9] 	130479
scalar abilene_cost_network.node[9].content_store 	decision_no[9] 	0
scalar abilene_cost_network.node[9].content_store 	decision_ratio[9] 	1
scalar abilene_cost_network.node[10].core_layer 	interests[10] 	169044
scalar abilene_cost_network.node[10].core_layer 	data[10] 	159626
scalar abilene_cost_network.node[10].content_store 	p_hit[10] 	0.055713305411609
scalar abilene_cost_network.node[10].content_store 	hits[10] 	9418
scalar abilene_cost_network.node[10].content_store 	misses[10] 	159626
scalar abilene_cost_network.node[10].content_store 	decision_yes[10] 	159626
scalar abilene_cost_network.node[10].content_store 	decision_no[10] 	0
scalar abilene_cost_network.node[10].content_store 	decision_ratio[10] 	1
scalar abilene_cost_network.node[11].core_layer 	interests[11] 	115883
scalar abilene_cost_network.node[11].core_layer 	repo_load[11] 	115883
scalar abilene_cost_network.node[11].core_layer 	data[11] 	0
scalar abilene_cost_network.node[11].content_store 	p_hit[11] 	0
scalar abilene_cost_network.node[11].content_store 	hits[11] 	0
scalar abilene_cost_network.node[11].content_store 	misses[11] 	115883
scalar abilene_cost_network.node[11].content_store 	decision_yes[11] 	0
scalar abilene_cost_network.node[11].content_store 	decision_no[11] 	115883
scalar abilene_cost_network.node[11].content_store 	decision_ratio[11] 	0
scalar abilene_cost_network.node[12].core_layer 	interests[12] 	111206
scalar abilene_cost_network.node[12].core_layer 	repo_load[12] 	111206
scalar abilene_cost_network.node[12].core_layer 	data[12] 	0
scalar abilene_cost_network.node[12].content_store 	p_hit[12] 	0
scalar abilene_cost_network.node[12].content_store 	hits[12] 	0
scalar abilene_cost_network.node[12].content_store 	misses[12] 	111206
scalar abilene_cost_network.node[12].content_store 	decision_yes[12] 	0
scalar abilene_cost_network.node[12].content_store 	decision_no[12] 	111206
scalar abilene_cost_network.node[12].content_store 	decision_ratio[12] 	0
scalar abilene_cost_network.node[13].core_layer 	interests[13] 	119780
scalar abilene_cost_network.node[13].core_layer 	repo_load[13] 	119780
scalar abilene_cost_network.node[13].core_layer 	data[13] 	0
scalar abilene_cost_network.node[13].content_store 	p_hit[13] 	0
scalar abilene_cost_network.node[13].content_store 	hits[13] 	0
scalar abilene_cost_network.node[13].content_store 	misses[13] 	119780
scalar abilene_cost_network.node[13].content_store 	decision_yes[13] 	0
scalar abilene_cost_network.node[13].content_store 	decision_no[13] 	119780
scalar abilene_cost_network.node[13].content_store 	decision_ratio[13] 	0
scalar abilene_cost_network.client[0] 	hdistance[0] 	2.7722301870437
scalar abilene_cost_network.client[0] 	downloads[0] 	179958
scalar abilene_cost_network.client[0] 	avg_time[0] 	0.010827255304
scalar abilene_cost_network.client[0] 	interests_sent[0] 	180162
scalar abilene_cost_network.client[5] 	hdistance[5] 	3.7730821670052
scalar abilene_cost_network.client[5] 	downloads[5] 	179695
scalar abilene_cost_network.client[5] 	avg_time[5] 	0.013418184326
scalar abilene_cost_network.client[5] 	interests_sent[5] 	179881
scalar abilene_cost_network.client[9] 	hdistance[9] 	2.4466181761992
scalar abilene_cost_network.client[9] 	downloads[9] 	181204
scalar abilene_cost_network.client[9] 	avg_time[9] 	0.009194343703
scalar abilene_cost_network.client[9] 	interests_sent[9] 	181375
