version 2
run General-29-20140630-13:14:52-25889
>>>>>>> e1705686414f379fcb9d06a9e50f5d7fe13c2c97
attr D lce
attr F spr
attr R lru
attr a 1
attr configname General
attr csize 1e3
attr ctlg 1e5
attr datetime 20140630-13:14:52
>>>>>>> e1705686414f379fcb9d06a9e50f5d7fe13c2c97
attr experiment General
attr inifile omnetpp.ini
attr iterationvars "$net=abilene_cost, $rep=11, $priceratiovalue=10, $weights=0.333_0.333_0.334, $lambda=100, $a=1, $ctlg=1e5, $F=spr, $ttl=1000, $D=lce, $xi=1, $R=lru, $csize=1e3, $pricebits=0, $window=60, $variance=0.05, $mytime=1800"
attr iterationvars2 "$net=abilene_cost, $rep=11, $priceratiovalue=10, $weights=0.333_0.333_0.334, $lambda=100, $a=1, $ctlg=1e5, $F=spr, $ttl=1000, $D=lce, $xi=1, $R=lru, $csize=1e3, $pricebits=0, $window=60, $variance=0.05, $mytime=1800, $repetition=0"
attr lambda 100
attr measurement "$net=abilene_cost, $rep=11, $priceratiovalue=10, $weights=0.333_0.333_0.334, $lambda=100, $a=1, $ctlg=1e5, $F=spr, $ttl=1000, $D=lce, $xi=1, $R=lru, $csize=1e3, $pricebits=0, $window=60, $variance=0.05, $mytime=1800"
attr mytime 1800
attr net abilene_cost
attr network "networks.${net=geant_cost, abilene_cost}_network"
attr pricebits 0
attr priceratiovalue 10
attr processid 25889
>>>>>>> e1705686414f379fcb9d06a9e50f5d7fe13c2c97
attr rep 11
attr repetition 0
attr replication #0
attr resultdir results
attr runnumber 29
attr seedset 11
attr ttl 1000
attr variance 0.05
attr weights 0.333_0.333_0.334
attr window 60
attr xi 1

scalar . 	a 	1
scalar . 	csize 	1e3
scalar . 	ctlg 	1e5
scalar . 	lambda 	100
scalar . 	mytime 	1800
scalar . 	pricebits 	0
scalar . 	priceratiovalue 	10
scalar . 	rep 	11
scalar . 	ttl 	1000
scalar . 	variance 	0.05
scalar . 	window 	60
scalar . 	xi 	1
scalar abilene_cost_network.content_distribution 	repo-0 	11
scalar abilene_cost_network.content_distribution 	repo-1 	12
scalar abilene_cost_network.content_distribution 	repo-2 	13
scalar abilene_cost_network.content_distribution 	client-0 	5
scalar abilene_cost_network.content_distribution 	client-1 	0
scalar abilene_cost_network.content_distribution 	client-2 	9
scalar abilene_cost_network.content_distribution 	repo-0_card 	33093
scalar abilene_cost_network.content_distribution 	repo-1_card 	33554
scalar abilene_cost_network.content_distribution 	repo-2_card 	33353
scalar abilene_cost_network.statistics 	repo_popularity[0] 	0.39172976570124
scalar abilene_cost_network.statistics 	repo_popularity[1] 	0.31007949205523
scalar abilene_cost_network.statistics 	repo_popularity[2] 	0.29819074224352
scalar abilene_cost_network.statistics 	stabilization_time 	63.9
scalar abilene_cost_network.node[1].face$o[4].channel 	price[1] 	0
scalar abilene_cost_network.node[1].face$o[4].channel 	represented_price[1] 	0
scalar abilene_cost_network.node[7].face$o[4].channel 	price[7] 	0
scalar abilene_cost_network.node[7].face$o[4].channel 	represented_price[7] 	0
scalar abilene_cost_network.node[10].face$o[4].channel 	price[10] 	0
scalar abilene_cost_network.node[10].face$o[4].channel 	represented_price[10] 	0
scalar abilene_cost_network.node[11].face$o[1].channel 	price[11] 	0
scalar abilene_cost_network.node[11].face$o[1].channel 	represented_price[11] 	0
scalar abilene_cost_network.node[12].face$o[1].channel 	price[12] 	1
scalar abilene_cost_network.node[12].face$o[1].channel 	represented_price[12] 	1
scalar abilene_cost_network.node[13].face$o[1].channel 	price[13] 	10
scalar abilene_cost_network.node[13].face$o[1].channel 	represented_price[13] 	10
scalar abilene_cost_network.statistics 	p_hit 	0.10689495399687
scalar abilene_cost_network.statistics 	interests 	129494.28571429
scalar abilene_cost_network.statistics 	data 	90876.214285714
scalar abilene_cost_network.statistics 	hdistance 	2.9964700134009
scalar abilene_cost_network.statistics 	avg_time 	0.011150349353
scalar abilene_cost_network.statistics 	downloads 	540108
scalar abilene_cost_network.statistics 	total_cost 	1332615
scalar abilene_cost_network.statistics 	total_replicas 	100000
scalar abilene_cost_network.statistics 	inner_hit 	0.35880786805602
scalar abilene_cost_network.statistics 	interests_sent 	540665
scalar abilene_cost_network.node[0].core_layer 	interests[0] 	180376
scalar abilene_cost_network.node[0].core_layer 	data[0] 	129760
scalar abilene_cost_network.node[0].core_layer 	repo_int[0] 	346313
scalar abilene_cost_network.node[0].content_store 	p_hit[0] 	0.27949394597951
scalar abilene_cost_network.node[0].content_store 	hits[0] 	50414
scalar abilene_cost_network.node[0].content_store 	misses[0] 	129962
scalar abilene_cost_network.node[0].content_store 	decision_yes[0] 	129760
scalar abilene_cost_network.node[0].content_store 	decision_no[0] 	0
scalar abilene_cost_network.node[0].content_store 	decision_ratio[0] 	1
scalar abilene_cost_network.node[1].core_layer 	interests[1] 	214935
scalar abilene_cost_network.node[1].core_layer 	data[1] 	205990
scalar abilene_cost_network.node[1].content_store 	p_hit[1] 	0.041626538255752
scalar abilene_cost_network.node[1].content_store 	hits[1] 	8947
scalar abilene_cost_network.node[1].content_store 	misses[1] 	205988
scalar abilene_cost_network.node[1].content_store 	decision_yes[1] 	205990
scalar abilene_cost_network.node[1].content_store 	decision_no[1] 	0
scalar abilene_cost_network.node[1].content_store 	decision_ratio[1] 	1
scalar abilene_cost_network.node[2].core_layer 	interests[2] 	126262
scalar abilene_cost_network.node[2].core_layer 	data[2] 	125882
scalar abilene_cost_network.node[2].content_store 	p_hit[2] 	0.0030254550062568
scalar abilene_cost_network.node[2].content_store 	hits[2] 	382
scalar abilene_cost_network.node[2].content_store 	misses[2] 	125880
scalar abilene_cost_network.node[2].content_store 	decision_yes[2] 	125882
scalar abilene_cost_network.node[2].content_store 	decision_no[2] 	0
scalar abilene_cost_network.node[2].content_store 	decision_ratio[2] 	1
scalar abilene_cost_network.node[3].core_layer 	interests[3] 	125880
scalar abilene_cost_network.node[3].core_layer 	data[3] 	125878
scalar abilene_cost_network.node[3].content_store 	p_hit[3] 	3.9720368605021e-05
scalar abilene_cost_network.node[3].content_store 	hits[3] 	5
scalar abilene_cost_network.node[3].content_store 	misses[3] 	125875
scalar abilene_cost_network.node[3].content_store 	decision_yes[3] 	125878
scalar abilene_cost_network.node[3].content_store 	decision_no[3] 	0
scalar abilene_cost_network.node[3].content_store 	decision_ratio[3] 	1
scalar abilene_cost_network.node[4].core_layer 	interests[4] 	85519
scalar abilene_cost_network.node[4].core_layer 	data[4] 	82493
scalar abilene_cost_network.node[4].content_store 	p_hit[4] 	0.035419029689309
scalar abilene_cost_network.node[4].content_store 	hits[4] 	3029
scalar abilene_cost_network.node[4].content_store 	misses[4] 	82490
scalar abilene_cost_network.node[4].content_store 	decision_yes[4] 	82493
scalar abilene_cost_network.node[4].content_store 	decision_no[4] 	0
scalar abilene_cost_network.node[4].content_store 	decision_ratio[4] 	1
scalar abilene_cost_network.node[5].core_layer 	interests[5] 	180318
scalar abilene_cost_network.node[5].core_layer 	data[5] 	129536
scalar abilene_cost_network.node[5].content_store 	p_hit[5] 	0.28057653700684
scalar abilene_cost_network.node[5].content_store 	hits[5] 	50593
scalar abilene_cost_network.node[5].content_store 	misses[5] 	129725
scalar abilene_cost_network.node[5].content_store 	decision_yes[5] 	129536
scalar abilene_cost_network.node[5].content_store 	decision_no[5] 	0
scalar abilene_cost_network.node[5].content_store 	decision_ratio[5] 	1
scalar abilene_cost_network.node[6].core_layer 	interests[6] 	44014
scalar abilene_cost_network.node[6].core_layer 	data[6] 	37785
scalar abilene_cost_network.node[6].content_store 	p_hit[6] 	0.14152315172445
scalar abilene_cost_network.node[6].content_store 	hits[6] 	6229
scalar abilene_cost_network.node[6].content_store 	misses[6] 	37785
scalar abilene_cost_network.node[6].content_store 	decision_yes[6] 	37785
scalar abilene_cost_network.node[6].content_store 	decision_no[6] 	0
scalar abilene_cost_network.node[6].content_store 	decision_ratio[6] 	1
scalar abilene_cost_network.node[7].core_layer 	interests[7] 	118831
scalar abilene_cost_network.node[7].core_layer 	data[7] 	110315
scalar abilene_cost_network.node[7].content_store 	p_hit[7] 	0.071664801272395
scalar abilene_cost_network.node[7].content_store 	hits[7] 	8516
scalar abilene_cost_network.node[7].content_store 	misses[7] 	110315
scalar abilene_cost_network.node[7].content_store 	decision_yes[7] 	110315
scalar abilene_cost_network.node[7].content_store 	decision_no[7] 	0
scalar abilene_cost_network.node[7].content_store 	decision_ratio[7] 	1
scalar abilene_cost_network.node[8].core_layer 	interests[8] 	43752
scalar abilene_cost_network.node[8].core_layer 	data[8] 	37661
scalar abilene_cost_network.node[8].content_store 	p_hit[8] 	0.13921649296032
scalar abilene_cost_network.node[8].content_store 	hits[8] 	6091
scalar abilene_cost_network.node[8].content_store 	misses[8] 	37661
scalar abilene_cost_network.node[8].content_store 	decision_yes[8] 	37661
scalar abilene_cost_network.node[8].content_store 	decision_no[8] 	0
scalar abilene_cost_network.node[8].content_store 	decision_ratio[8] 	1
scalar abilene_cost_network.node[9].core_layer 	interests[9] 	179971
scalar abilene_cost_network.node[9].core_layer 	data[9] 	129198
scalar abilene_cost_network.node[9].content_store 	p_hit[9] 	0.28119530368782
scalar abilene_cost_network.node[9].content_store 	hits[9] 	50607
scalar abilene_cost_network.node[9].content_store 	misses[9] 	129364
scalar abilene_cost_network.node[9].content_store 	decision_yes[9] 	129198
scalar abilene_cost_network.node[9].content_store 	decision_no[9] 	0
scalar abilene_cost_network.node[9].content_store 	decision_ratio[9] 	1
scalar abilene_cost_network.node[10].core_layer 	interests[10] 	166749
scalar abilene_cost_network.node[10].core_layer 	data[10] 	157769
scalar abilene_cost_network.node[10].content_store 	p_hit[10] 	0.053847399384704
scalar abilene_cost_network.node[10].content_store 	hits[10] 	8979
scalar abilene_cost_network.node[10].content_store 	misses[10] 	157770
scalar abilene_cost_network.node[10].content_store 	decision_yes[10] 	157769
scalar abilene_cost_network.node[10].content_store 	decision_no[10] 	0
scalar abilene_cost_network.node[10].content_store 	decision_ratio[10] 	1
scalar abilene_cost_network.node[11].core_layer 	interests[11] 	113768
scalar abilene_cost_network.node[11].core_layer 	repo_load[11] 	113768
scalar abilene_cost_network.node[11].core_layer 	data[11] 	0
scalar abilene_cost_network.node[11].content_store 	p_hit[11] 	0
scalar abilene_cost_network.node[11].content_store 	hits[11] 	0
scalar abilene_cost_network.node[11].content_store 	misses[11] 	113768
scalar abilene_cost_network.node[11].content_store 	decision_yes[11] 	0
scalar abilene_cost_network.node[11].content_store 	decision_no[11] 	113768
scalar abilene_cost_network.node[11].content_store 	decision_ratio[11] 	0
scalar abilene_cost_network.node[12].core_layer 	interests[12] 	110315
scalar abilene_cost_network.node[12].core_layer 	repo_load[12] 	110315
scalar abilene_cost_network.node[12].core_layer 	data[12] 	0
scalar abilene_cost_network.node[12].content_store 	p_hit[12] 	0
scalar abilene_cost_network.node[12].content_store 	hits[12] 	0
scalar abilene_cost_network.node[12].content_store 	misses[12] 	110315
scalar abilene_cost_network.node[12].content_store 	decision_yes[12] 	0
scalar abilene_cost_network.node[12].content_store 	decision_no[12] 	110315
scalar abilene_cost_network.node[12].content_store 	decision_ratio[12] 	0
scalar abilene_cost_network.node[13].core_layer 	interests[13] 	122230
scalar abilene_cost_network.node[13].core_layer 	repo_load[13] 	122230
scalar abilene_cost_network.node[13].core_layer 	data[13] 	0
scalar abilene_cost_network.node[13].content_store 	p_hit[13] 	0
scalar abilene_cost_network.node[13].content_store 	hits[13] 	0
scalar abilene_cost_network.node[13].content_store 	misses[13] 	122230
scalar abilene_cost_network.node[13].content_store 	decision_yes[13] 	0
scalar abilene_cost_network.node[13].content_store 	decision_no[13] 	122230
scalar abilene_cost_network.node[13].content_store 	decision_ratio[13] 	0
scalar abilene_cost_network.client[0] 	hdistance[0] 	2.7752894424278
scalar abilene_cost_network.client[0] 	downloads[0] 	180174
scalar abilene_cost_network.client[0] 	avg_time[0] 	0.010853509155
scalar abilene_cost_network.client[0] 	interests_sent[0] 	180376
scalar abilene_cost_network.client[5] 	hdistance[5] 	3.7686602379406
scalar abilene_cost_network.client[5] 	downloads[5] 	180129
scalar abilene_cost_network.client[5] 	avg_time[5] 	0.013383606722
scalar abilene_cost_network.client[5] 	interests_sent[5] 	180318
scalar abilene_cost_network.client[9] 	hdistance[9] 	2.4454603598342
scalar abilene_cost_network.client[9] 	downloads[9] 	179805
scalar abilene_cost_network.client[9] 	avg_time[9] 	0.009213932182
scalar abilene_cost_network.client[9] 	interests_sent[9] 	179971
