version 2
run General-37-20140627-19:45:27-15436
attr D lce
attr F spr
attr R lru
attr a 1
attr configname General
attr csize 1e3
attr ctlg 1e5
attr datetime 20140627-19:45:27
attr experiment General
attr inifile omnetpp.ini
attr iterationvars "$net=abilene_cost, $rep=19, $priceratiovalue=10, $weights=0.333_0.333_0.334, $lambda=100, $a=1, $ctlg=1e5, $F=spr, $ttl=1000, $D=lce, $xi=1, $R=lru, $csize=1e3, $pricebits=0, $window=60, $variance=0.05, $mytime=1800"
attr iterationvars2 "$net=abilene_cost, $rep=19, $priceratiovalue=10, $weights=0.333_0.333_0.334, $lambda=100, $a=1, $ctlg=1e5, $F=spr, $ttl=1000, $D=lce, $xi=1, $R=lru, $csize=1e3, $pricebits=0, $window=60, $variance=0.05, $mytime=1800, $repetition=0"
attr lambda 100
attr measurement "$net=abilene_cost, $rep=19, $priceratiovalue=10, $weights=0.333_0.333_0.334, $lambda=100, $a=1, $ctlg=1e5, $F=spr, $ttl=1000, $D=lce, $xi=1, $R=lru, $csize=1e3, $pricebits=0, $window=60, $variance=0.05, $mytime=1800"
attr mytime 1800
attr net abilene_cost
attr network "networks.${net=geant_cost, abilene_cost}_network"
attr pricebits 0
attr priceratiovalue 10
attr processid 15436
attr rep 19
attr repetition 0
attr replication #0
attr resultdir results
attr runnumber 37
attr seedset 19
attr ttl 1000
attr variance 0.05
attr weights 0.333_0.333_0.334
attr window 60
attr xi 1

scalar . 	a 	1
scalar . 	csize 	1e3
scalar . 	ctlg 	1e5
scalar . 	lambda 	100
scalar . 	mytime 	1800
scalar . 	pricebits 	0
scalar . 	priceratiovalue 	10
scalar . 	rep 	19
scalar . 	ttl 	1000
scalar . 	variance 	0.05
scalar . 	window 	60
scalar . 	xi 	1
scalar abilene_cost_network.content_distribution 	repo-0 	11
scalar abilene_cost_network.content_distribution 	repo-1 	12
scalar abilene_cost_network.content_distribution 	repo-2 	13
scalar abilene_cost_network.content_distribution 	client-0 	5
scalar abilene_cost_network.content_distribution 	client-1 	0
scalar abilene_cost_network.content_distribution 	client-2 	9
scalar abilene_cost_network.content_distribution 	repo-0_card 	33368
scalar abilene_cost_network.content_distribution 	repo-1_card 	33389
scalar abilene_cost_network.content_distribution 	repo-2_card 	33243
scalar abilene_cost_network.statistics 	repo_popularity[0] 	0.2704974433948
scalar abilene_cost_network.statistics 	repo_popularity[1] 	0.39472808551936
scalar abilene_cost_network.statistics 	repo_popularity[2] 	0.33477447108584
scalar abilene_cost_network.statistics 	stabilization_time 	64.3
scalar abilene_cost_network.node[1].face$o[4].channel 	price[1] 	0
scalar abilene_cost_network.node[1].face$o[4].channel 	represented_price[1] 	0
scalar abilene_cost_network.node[7].face$o[4].channel 	price[7] 	0
scalar abilene_cost_network.node[7].face$o[4].channel 	represented_price[7] 	0
scalar abilene_cost_network.node[10].face$o[4].channel 	price[10] 	0
scalar abilene_cost_network.node[10].face$o[4].channel 	represented_price[10] 	0
scalar abilene_cost_network.node[11].face$o[1].channel 	price[11] 	0
scalar abilene_cost_network.node[11].face$o[1].channel 	represented_price[11] 	0
scalar abilene_cost_network.node[12].face$o[1].channel 	price[12] 	1
scalar abilene_cost_network.node[12].face$o[1].channel 	represented_price[12] 	1
scalar abilene_cost_network.node[13].face$o[1].channel 	price[13] 	10
scalar abilene_cost_network.node[13].face$o[1].channel 	represented_price[13] 	10
scalar abilene_cost_network.statistics 	p_hit 	0.10683474688577
scalar abilene_cost_network.statistics 	interests 	129360
scalar abilene_cost_network.statistics 	data 	90800.571428571
scalar abilene_cost_network.statistics 	hdistance 	2.9988967226824
scalar abilene_cost_network.statistics 	avg_time 	0.011149373807
scalar abilene_cost_network.statistics 	downloads 	539237
scalar abilene_cost_network.statistics 	total_cost 	1291584
scalar abilene_cost_network.statistics 	total_replicas 	100000
scalar abilene_cost_network.statistics 	inner_hit 	0.35879956308636
scalar abilene_cost_network.statistics 	interests_sent 	539817
scalar abilene_cost_network.node[0].core_layer 	interests[0] 	179373
scalar abilene_cost_network.node[0].core_layer 	data[0] 	128869
scalar abilene_cost_network.node[0].core_layer 	repo_int[0] 	345759
scalar abilene_cost_network.node[0].content_store 	p_hit[0] 	0.28054946954112
scalar abilene_cost_network.node[0].content_store 	hits[0] 	50323
scalar abilene_cost_network.node[0].content_store 	misses[0] 	129050
scalar abilene_cost_network.node[0].content_store 	decision_yes[0] 	128869
scalar abilene_cost_network.node[0].content_store 	decision_no[0] 	0
scalar abilene_cost_network.node[0].content_store 	decision_ratio[0] 	1
scalar abilene_cost_network.node[1].core_layer 	interests[1] 	211657
scalar abilene_cost_network.node[1].core_layer 	data[1] 	202944
scalar abilene_cost_network.node[1].content_store 	p_hit[1] 	0.041146761033181
scalar abilene_cost_network.node[1].content_store 	hits[1] 	8709
scalar abilene_cost_network.node[1].content_store 	misses[1] 	202948
scalar abilene_cost_network.node[1].content_store 	decision_yes[1] 	202944
scalar abilene_cost_network.node[1].content_store 	decision_no[1] 	0
scalar abilene_cost_network.node[1].content_store 	decision_ratio[1] 	1
scalar abilene_cost_network.node[2].core_layer 	interests[2] 	125943
scalar abilene_cost_network.node[2].core_layer 	data[2] 	125616
scalar abilene_cost_network.node[2].content_store 	p_hit[2] 	0.0025725923632119
scalar abilene_cost_network.node[2].content_store 	hits[2] 	324
scalar abilene_cost_network.node[2].content_store 	misses[2] 	125619
scalar abilene_cost_network.node[2].content_store 	decision_yes[2] 	125616
scalar abilene_cost_network.node[2].content_store 	decision_no[2] 	0
scalar abilene_cost_network.node[2].content_store 	decision_ratio[2] 	1
scalar abilene_cost_network.node[3].core_layer 	interests[3] 	125619
scalar abilene_cost_network.node[3].core_layer 	data[3] 	125615
scalar abilene_cost_network.node[3].content_store 	p_hit[3] 	7.9605792117434e-06
scalar abilene_cost_network.node[3].content_store 	hits[3] 	1
scalar abilene_cost_network.node[3].content_store 	misses[3] 	125618
scalar abilene_cost_network.node[3].content_store 	decision_yes[3] 	125615
scalar abilene_cost_network.node[3].content_store 	decision_no[3] 	0
scalar abilene_cost_network.node[3].content_store 	decision_ratio[3] 	1
scalar abilene_cost_network.node[4].core_layer 	interests[4] 	85745
scalar abilene_cost_network.node[4].core_layer 	data[4] 	82420
scalar abilene_cost_network.node[4].content_store 	p_hit[4] 	0.038766108811009
scalar abilene_cost_network.node[4].content_store 	hits[4] 	3324
scalar abilene_cost_network.node[4].content_store 	misses[4] 	82421
scalar abilene_cost_network.node[4].content_store 	decision_yes[4] 	82420
scalar abilene_cost_network.node[4].content_store 	decision_no[4] 	0
scalar abilene_cost_network.node[4].content_store 	decision_ratio[4] 	1
scalar abilene_cost_network.node[5].core_layer 	interests[5] 	179966
scalar abilene_cost_network.node[5].core_layer 	data[5] 	129372
scalar abilene_cost_network.node[5].content_store 	p_hit[5] 	0.27998066301412
scalar abilene_cost_network.node[5].content_store 	hits[5] 	50387
scalar abilene_cost_network.node[5].content_store 	misses[5] 	129579
scalar abilene_cost_network.node[5].content_store 	decision_yes[5] 	129372
scalar abilene_cost_network.node[5].content_store 	decision_no[5] 	0
scalar abilene_cost_network.node[5].content_store 	decision_ratio[5] 	1
scalar abilene_cost_network.node[6].core_layer 	interests[6] 	43628
scalar abilene_cost_network.node[6].core_layer 	data[6] 	38008
scalar abilene_cost_network.node[6].content_store 	p_hit[6] 	0.12883927752819
scalar abilene_cost_network.node[6].content_store 	hits[6] 	5621
scalar abilene_cost_network.node[6].content_store 	misses[6] 	38007
scalar abilene_cost_network.node[6].content_store 	decision_yes[6] 	38008
scalar abilene_cost_network.node[6].content_store 	decision_no[6] 	0
scalar abilene_cost_network.node[6].content_store 	decision_ratio[6] 	1
scalar abilene_cost_network.node[7].core_layer 	interests[7] 	119186
scalar abilene_cost_network.node[7].core_layer 	data[7] 	110834
scalar abilene_cost_network.node[7].content_store 	p_hit[7] 	0.070075344419647
scalar abilene_cost_network.node[7].content_store 	hits[7] 	8352
scalar abilene_cost_network.node[7].content_store 	misses[7] 	110834
scalar abilene_cost_network.node[7].content_store 	decision_yes[7] 	110834
scalar abilene_cost_network.node[7].content_store 	decision_no[7] 	0
scalar abilene_cost_network.node[7].content_store 	decision_ratio[7] 	1
scalar abilene_cost_network.node[8].core_layer 	interests[8] 	43487
scalar abilene_cost_network.node[8].core_layer 	data[8] 	37982
scalar abilene_cost_network.node[8].content_store 	p_hit[8] 	0.12658955549934
scalar abilene_cost_network.node[8].content_store 	hits[8] 	5505
scalar abilene_cost_network.node[8].content_store 	misses[8] 	37982
scalar abilene_cost_network.node[8].content_store 	decision_yes[8] 	37982
scalar abilene_cost_network.node[8].content_store 	decision_no[8] 	0
scalar abilene_cost_network.node[8].content_store 	decision_ratio[8] 	1
scalar abilene_cost_network.node[9].core_layer 	interests[9] 	180478
scalar abilene_cost_network.node[9].core_layer 	data[9] 	129570
scalar abilene_cost_network.node[9].content_store 	p_hit[9] 	0.28100931969548
scalar abilene_cost_network.node[9].content_store 	hits[9] 	50716
scalar abilene_cost_network.node[9].content_store 	misses[9] 	129762
scalar abilene_cost_network.node[9].content_store 	decision_yes[9] 	129570
scalar abilene_cost_network.node[9].content_store 	decision_no[9] 	0
scalar abilene_cost_network.node[9].content_store 	decision_ratio[9] 	1
scalar abilene_cost_network.node[10].core_layer 	interests[10] 	170199
scalar abilene_cost_network.node[10].core_layer 	data[10] 	159978
scalar abilene_cost_network.node[10].content_store 	p_hit[10] 	0.060047356329943
scalar abilene_cost_network.node[10].content_store 	hits[10] 	10220
scalar abilene_cost_network.node[10].content_store 	misses[10] 	159979
scalar abilene_cost_network.node[10].content_store 	decision_yes[10] 	159978
scalar abilene_cost_network.node[10].content_store 	decision_no[10] 	0
scalar abilene_cost_network.node[10].content_store 	decision_ratio[10] 	1
scalar abilene_cost_network.node[11].core_layer 	interests[11] 	116850
scalar abilene_cost_network.node[11].core_layer 	repo_load[11] 	116850
scalar abilene_cost_network.node[11].core_layer 	data[11] 	0
scalar abilene_cost_network.node[11].content_store 	p_hit[11] 	0
scalar abilene_cost_network.node[11].content_store 	hits[11] 	0
scalar abilene_cost_network.node[11].content_store 	misses[11] 	116850
scalar abilene_cost_network.node[11].content_store 	decision_yes[11] 	0
scalar abilene_cost_network.node[11].content_store 	decision_no[11] 	116850
scalar abilene_cost_network.node[11].content_store 	decision_ratio[11] 	0
scalar abilene_cost_network.node[12].core_layer 	interests[12] 	110834
scalar abilene_cost_network.node[12].core_layer 	repo_load[12] 	110834
scalar abilene_cost_network.node[12].core_layer 	data[12] 	0
scalar abilene_cost_network.node[12].content_store 	p_hit[12] 	0
scalar abilene_cost_network.node[12].content_store 	hits[12] 	0
scalar abilene_cost_network.node[12].content_store 	misses[12] 	110834
scalar abilene_cost_network.node[12].content_store 	decision_yes[12] 	0
scalar abilene_cost_network.node[12].content_store 	decision_no[12] 	110834
scalar abilene_cost_network.node[12].content_store 	decision_ratio[12] 	0
scalar abilene_cost_network.node[13].core_layer 	interests[13] 	118075
scalar abilene_cost_network.node[13].core_layer 	repo_load[13] 	118075
scalar abilene_cost_network.node[13].core_layer 	data[13] 	0
scalar abilene_cost_network.node[13].content_store 	p_hit[13] 	0
scalar abilene_cost_network.node[13].content_store 	hits[13] 	0
scalar abilene_cost_network.node[13].content_store 	misses[13] 	118075
scalar abilene_cost_network.node[13].content_store 	decision_yes[13] 	0
scalar abilene_cost_network.node[13].content_store 	decision_no[13] 	118075
scalar abilene_cost_network.node[13].content_store 	decision_ratio[13] 	0
scalar abilene_cost_network.client[0] 	hdistance[0] 	2.7688066431538
scalar abilene_cost_network.client[0] 	downloads[0] 	179192
scalar abilene_cost_network.client[0] 	avg_time[0] 	0.010811412091
scalar abilene_cost_network.client[0] 	interests_sent[0] 	179373
scalar abilene_cost_network.client[5] 	hdistance[5] 	3.7821805862293
scalar abilene_cost_network.client[5] 	downloads[5] 	179759
scalar abilene_cost_network.client[5] 	avg_time[5] 	0.013493011261
scalar abilene_cost_network.client[5] 	interests_sent[5] 	179966
scalar abilene_cost_network.client[9] 	hdistance[9] 	2.4457029386641
scalar abilene_cost_network.client[9] 	downloads[9] 	180286
scalar abilene_cost_network.client[9] 	avg_time[9] 	0.009143698069
scalar abilene_cost_network.client[9] 	interests_sent[9] 	180478
