version 2
run General-20-20141008-11:13:19-3663
attr D costaware0.01
attr F nrr
attr R lru
attr a 1
attr configname General
attr csize 1e3
attr ctlg 1e5
attr datetime 20141008-11:13:19
attr experiment General
attr inifile omnetpp.ini
attr iterationvars "$net=cost_scenario, $rep=16, $priceratiovalue=10, $weights=0.5_0.25_0.25, $lambda=100, $a=1, $ctlg=1e5, $F=nrr, $ttl=10, $D=costaware0.01, $xi=0.75, $R=lru, $csize=1e3, $pricebits=0, $window=60, $variance=0.05, $mytime=1800"
attr iterationvars2 "$net=cost_scenario, $rep=16, $priceratiovalue=10, $weights=0.5_0.25_0.25, $lambda=100, $a=1, $ctlg=1e5, $F=nrr, $ttl=10, $D=costaware0.01, $xi=0.75, $R=lru, $csize=1e3, $pricebits=0, $window=60, $variance=0.05, $mytime=1800, $repetition=0"
attr lambda 100
attr measurement "$net=cost_scenario, $rep=16, $priceratiovalue=10, $weights=0.5_0.25_0.25, $lambda=100, $a=1, $ctlg=1e5, $F=nrr, $ttl=10, $D=costaware0.01, $xi=0.75, $R=lru, $csize=1e3, $pricebits=0, $window=60, $variance=0.05, $mytime=1800"
attr mytime 1800
attr net cost_scenario
attr network networks.${net=cost_scenario}_network
attr pricebits 0
attr priceratiovalue 10
attr processid 3663
attr rep 16
attr repetition 0
attr replication #0
attr resultdir results
attr runnumber 20
attr seedset 16
attr ttl 10
attr variance 0.05
attr weights 0.5_0.25_0.25
attr window 60
attr xi 0.75

scalar . 	a 	1
scalar . 	csize 	1e3
scalar . 	ctlg 	1e5
scalar . 	lambda 	100
scalar . 	mytime 	1800
scalar . 	pricebits 	0
scalar . 	priceratiovalue 	10
scalar . 	rep 	16
scalar . 	ttl 	10
scalar . 	variance 	0.05
scalar . 	window 	60
scalar . 	xi 	0.75
scalar cost_scenario_network.content_distribution 	repo-0 	1
scalar cost_scenario_network.content_distribution 	repo-1 	2
scalar cost_scenario_network.content_distribution 	repo-2 	3
scalar cost_scenario_network.content_distribution 	client-0 	0
scalar cost_scenario_network.content_distribution 	repo-0_card 	33301
scalar cost_scenario_network.content_distribution 	repo-0_price 	1
scalar cost_scenario_network.content_distribution 	repo-1_card 	33208
scalar cost_scenario_network.content_distribution 	repo-1_price 	0
scalar cost_scenario_network.content_distribution 	repo-2_card 	33491
scalar cost_scenario_network.content_distribution 	repo-2_price 	10
scalar cost_scenario_network.statistics 	repo_popularity[0] 	0.31763331529248
scalar cost_scenario_network.statistics 	repo_popularity[1] 	0.32934105878574
scalar cost_scenario_network.statistics 	repo_popularity[2] 	0.35302562592179
scalar cost_scenario_network.statistics 	stabilization_time 	61.3
scalar cost_scenario_network.statistics 	p_hit 	0.16804039840922
scalar cost_scenario_network.statistics 	interests 	77131.75
scalar cost_scenario_network.statistics 	data 	32085.25
scalar cost_scenario_network.statistics 	hdistance 	1.4245390873875
scalar cost_scenario_network.statistics 	avg_time 	0
scalar cost_scenario_network.statistics 	downloads 	180186
scalar cost_scenario_network.statistics 	total_cost 	498713
scalar cost_scenario_network.statistics 	total_replicas 	100000
scalar cost_scenario_network.statistics 	inner_hit 	0.28773045630626
scalar cost_scenario_network.node[0].core_layer 	interests[0] 	180186
scalar cost_scenario_network.node[0].core_layer 	data[0] 	128341
scalar cost_scenario_network.node[0].core_layer 	repo_int[0] 	128341
scalar cost_scenario_network.node[0].content_store 	p_hit[0] 	0.28773045630626
scalar cost_scenario_network.node[0].content_store 	hits[0] 	51845
scalar cost_scenario_network.node[0].content_store 	misses[0] 	128341
scalar cost_scenario_network.node[0].content_store 	decision_yes[0] 	128341
scalar cost_scenario_network.node[0].content_store 	decision_no[0] 	0
scalar cost_scenario_network.node[0].content_store 	decision_ratio[0] 	1
scalar cost_scenario_network.node[1].core_layer 	interests[1] 	42223
scalar cost_scenario_network.node[1].core_layer 	repo_load[1] 	42223
scalar cost_scenario_network.node[1].core_layer 	data[1] 	0
scalar cost_scenario_network.node[1].content_store 	p_hit[1] 	0
scalar cost_scenario_network.node[1].content_store 	hits[1] 	0
scalar cost_scenario_network.node[1].content_store 	misses[1] 	42223
scalar cost_scenario_network.node[1].content_store 	decision_yes[1] 	0
scalar cost_scenario_network.node[1].content_store 	decision_no[1] 	42223
scalar cost_scenario_network.node[1].content_store 	decision_ratio[1] 	0
scalar cost_scenario_network.node[2].core_layer 	interests[2] 	40469
scalar cost_scenario_network.node[2].core_layer 	repo_load[2] 	40469
scalar cost_scenario_network.node[2].core_layer 	data[2] 	0
scalar cost_scenario_network.node[2].content_store 	p_hit[2] 	0
scalar cost_scenario_network.node[2].content_store 	hits[2] 	0
scalar cost_scenario_network.node[2].content_store 	misses[2] 	40469
scalar cost_scenario_network.node[2].content_store 	decision_yes[2] 	0
scalar cost_scenario_network.node[2].content_store 	decision_no[2] 	40469
scalar cost_scenario_network.node[2].content_store 	decision_ratio[2] 	0
scalar cost_scenario_network.node[3].core_layer 	interests[3] 	45649
scalar cost_scenario_network.node[3].core_layer 	repo_load[3] 	45649
scalar cost_scenario_network.node[3].core_layer 	data[3] 	0
scalar cost_scenario_network.node[3].content_store 	p_hit[3] 	0
scalar cost_scenario_network.node[3].content_store 	hits[3] 	0
scalar cost_scenario_network.node[3].content_store 	misses[3] 	45649
scalar cost_scenario_network.node[3].content_store 	decision_yes[3] 	0
scalar cost_scenario_network.node[3].content_store 	decision_no[3] 	45649
scalar cost_scenario_network.node[3].content_store 	decision_ratio[3] 	0
scalar cost_scenario_network.client[0] 	hdistance[0] 	1.4245390873875
scalar cost_scenario_network.client[0] 	downloads[0] 	180186
scalar cost_scenario_network.client[0] 	avg_time[0] 	0
