version 2
run General-809-20140422-19:55:50-27557
attr D costprob0.01
attr F nrr
attr R lru
attr a 0
attr configname General
attr csize 10
attr ctlg 10^3
attr datetime 20140422-19:55:50
attr experiment General
attr inifile omnetpp.ini
attr iterationvars "$net=simple_scenario, $rep=7, $priceratiovalue=8, $a=0, $ctlg=10^3, $F=nrr, $ttl=1000, $D=costprob0.01, $R=lru, $csize=10"
attr iterationvars2 "$net=simple_scenario, $rep=7, $priceratiovalue=8, $a=0, $ctlg=10^3, $F=nrr, $ttl=1000, $D=costprob0.01, $R=lru, $csize=10, $repetition=0"
attr measurement "$net=simple_scenario, $rep=7, $priceratiovalue=8, $a=0, $ctlg=10^3, $F=nrr, $ttl=1000, $D=costprob0.01, $R=lru, $csize=10"
attr net simple_scenario
attr network networks.${net=simple_scenario}_network
attr priceratiovalue 8
attr processid 27557
attr rep 7
attr repetition 0
attr replication #0
attr resultdir results
attr runnumber 809
attr seedset 7
attr ttl 1000

scalar . 	a 	0
scalar . 	csize 	10
scalar . 	priceratiovalue 	8
scalar . 	rep 	7
scalar . 	ttl 	1000
scalar simple_scenario_network.content_distribution 	repo-0 	3
scalar simple_scenario_network.content_distribution 	repo-1 	4
scalar simple_scenario_network.content_distribution 	client-0 	0
scalar simple_scenario_network.content_distribution 	repo-0_card 	505
scalar simple_scenario_network.content_distribution 	repo-1_card 	495
scalar simple_scenario_network.statistics 	p_hit 	0.010122963073703
scalar simple_scenario_network.statistics 	interests 	107024
scalar simple_scenario_network.statistics 	data 	70868.2
scalar simple_scenario_network.statistics 	hdistance 	2.9301135640755
scalar simple_scenario_network.statistics 	avg_time 	0.001999786607
scalar simple_scenario_network.statistics 	downloads 	180779
scalar simple_scenario_network.statistics 	total_cost 	86218
scalar simple_scenario_network.node[0].core_layer 	interests[0] 	180779
scalar simple_scenario_network.node[0].core_layer 	data[0] 	178979
scalar simple_scenario_network.node[0].core_layer 	repo_int[0] 	175362
scalar simple_scenario_network.node[0].content_store 	p_hit[0] 	0.009956908711742
scalar simple_scenario_network.node[0].content_store 	hits[0] 	1800
scalar simple_scenario_network.node[0].content_store 	misses[0] 	178979
scalar simple_scenario_network.node[1].core_layer 	interests[1] 	91387
scalar simple_scenario_network.node[1].core_layer 	data[1] 	89561
scalar simple_scenario_network.node[1].content_store 	p_hit[1] 	0.019980960092792
scalar simple_scenario_network.node[1].content_store 	hits[1] 	1826
scalar simple_scenario_network.node[1].content_store 	misses[1] 	89561
scalar simple_scenario_network.node[2].core_layer 	interests[2] 	87592
scalar simple_scenario_network.node[2].core_layer 	data[2] 	85801
scalar simple_scenario_network.node[2].content_store 	p_hit[2] 	0.020447072792036
scalar simple_scenario_network.node[2].content_store 	hits[2] 	1791
scalar simple_scenario_network.node[2].content_store 	misses[2] 	85801
scalar simple_scenario_network.node[3].core_layer 	interests[3] 	89561
scalar simple_scenario_network.node[3].core_layer 	repo_load[3] 	89561
scalar simple_scenario_network.node[3].core_layer 	data[3] 	0
scalar simple_scenario_network.node[3].content_store 	p_hit[3] 	0
scalar simple_scenario_network.node[3].content_store 	hits[3] 	0
scalar simple_scenario_network.node[3].content_store 	misses[3] 	89561
scalar simple_scenario_network.node[4].core_layer 	interests[4] 	85801
scalar simple_scenario_network.node[4].core_layer 	repo_load[4] 	85801
scalar simple_scenario_network.node[4].core_layer 	data[4] 	0
scalar simple_scenario_network.node[4].content_store 	p_hit[4] 	0
scalar simple_scenario_network.node[4].content_store 	hits[4] 	0
scalar simple_scenario_network.node[4].content_store 	misses[4] 	85801
scalar simple_scenario_network.client[0] 	hdistance[0] 	2.9301135640755
scalar simple_scenario_network.client[0] 	downloads[0] 	180779
scalar simple_scenario_network.client[0] 	avg_time[0] 	0.001999786607
