version 2
run General-57-20140502-10:00:21-13154
attr D fix0.001
attr F nrr
attr R lru
attr a 1
attr configname General
attr csize 1e3
attr ctlg 1e5
attr datetime 20140502-10:00:21
attr experiment General
attr inifile omnetpp.ini
attr iterationvars "$net=three_caches_scenario_3_links, $rep=1, $priceratiovalue=2, $weights=0.333_0.333_0.334, $a=1, $ctlg=1e5, $F=nrr, $ttl=1000, $D=fix0.001, $xi=1, $R=lru, $csize=1e3"
attr iterationvars2 "$net=three_caches_scenario_3_links, $rep=1, $priceratiovalue=2, $weights=0.333_0.333_0.334, $a=1, $ctlg=1e5, $F=nrr, $ttl=1000, $D=fix0.001, $xi=1, $R=lru, $csize=1e3, $repetition=0"
attr measurement "$net=three_caches_scenario_3_links, $rep=1, $priceratiovalue=2, $weights=0.333_0.333_0.334, $a=1, $ctlg=1e5, $F=nrr, $ttl=1000, $D=fix0.001, $xi=1, $R=lru, $csize=1e3"
attr net three_caches_scenario_3_links
attr network networks.${net=three_caches_scenario_3_links}_network
attr priceratiovalue 2
attr processid 13154
attr rep 1
attr repetition 0
attr replication #0
attr resultdir results
attr runnumber 57
attr seedset 1
attr ttl 1000
attr weights 0.333_0.333_0.334
attr xi 1

scalar . 	a 	1
scalar . 	csize 	1e3
scalar . 	ctlg 	1e5
scalar . 	priceratiovalue 	2
scalar . 	rep 	1
scalar . 	ttl 	1000
scalar . 	xi 	1
scalar three_caches_scenario_3_links_network.content_distribution 	repo-0 	4
scalar three_caches_scenario_3_links_network.content_distribution 	repo-1 	5
scalar three_caches_scenario_3_links_network.content_distribution 	repo-2 	6
scalar three_caches_scenario_3_links_network.content_distribution 	client-0 	0
scalar three_caches_scenario_3_links_network.content_distribution 	repo-0_card 	33352
scalar three_caches_scenario_3_links_network.content_distribution 	repo-1_card 	33263
scalar three_caches_scenario_3_links_network.content_distribution 	repo-2_card 	33385
scalar three_caches_scenario_3_links_network.statistics 	p_hit 	0.27405643858519
scalar three_caches_scenario_3_links_network.statistics 	interests 	50583.428571429
scalar three_caches_scenario_3_links_network.statistics 	data 	24838.142857143
scalar three_caches_scenario_3_links_network.statistics 	hdistance 	1.260042060405
scalar three_caches_scenario_3_links_network.statistics 	avg_time 	0
scalar three_caches_scenario_3_links_network.statistics 	downloads 	180217
scalar three_caches_scenario_3_links_network.statistics 	total_cost 	79794
scalar three_caches_scenario_3_links_network.statistics 	total_replicas 	100000
scalar three_caches_scenario_3_links_network.statistics 	interests_sent 	180217
scalar three_caches_scenario_3_links_network.node[0].core_layer 	interests[0] 	180217
scalar three_caches_scenario_3_links_network.node[0].core_layer 	data[0] 	90689
scalar three_caches_scenario_3_links_network.node[0].core_layer 	repo_int[0] 	83178
scalar three_caches_scenario_3_links_network.node[0].content_store 	p_hit[0] 	0.49677888323521
scalar three_caches_scenario_3_links_network.node[0].content_store 	hits[0] 	89528
scalar three_caches_scenario_3_links_network.node[0].content_store 	misses[0] 	90689
scalar three_caches_scenario_3_links_network.node[0].content_store 	decision_yes[0] 	82
scalar three_caches_scenario_3_links_network.node[0].content_store 	decision_no[0] 	90607
scalar three_caches_scenario_3_links_network.node[1].core_layer 	interests[1] 	29964
scalar three_caches_scenario_3_links_network.node[1].core_layer 	data[1] 	29964
scalar three_caches_scenario_3_links_network.node[1].content_store 	p_hit[1] 	0
scalar three_caches_scenario_3_links_network.node[1].content_store 	hits[1] 	0
scalar three_caches_scenario_3_links_network.node[1].content_store 	misses[1] 	29964
scalar three_caches_scenario_3_links_network.node[1].content_store 	decision_yes[1] 	0
scalar three_caches_scenario_3_links_network.node[1].content_store 	decision_no[1] 	29964
scalar three_caches_scenario_3_links_network.node[2].core_layer 	interests[2] 	30620
scalar three_caches_scenario_3_links_network.node[2].core_layer 	data[2] 	26634
scalar three_caches_scenario_3_links_network.node[2].content_store 	p_hit[2] 	0.13017635532332
scalar three_caches_scenario_3_links_network.node[2].content_store 	hits[2] 	3986
scalar three_caches_scenario_3_links_network.node[2].content_store 	misses[2] 	26634
scalar three_caches_scenario_3_links_network.node[2].content_store 	decision_yes[2] 	33
scalar three_caches_scenario_3_links_network.node[2].content_store 	decision_no[2] 	26601
scalar three_caches_scenario_3_links_network.node[3].core_layer 	interests[3] 	30105
scalar three_caches_scenario_3_links_network.node[3].core_layer 	data[3] 	26580
scalar three_caches_scenario_3_links_network.node[3].content_store 	p_hit[3] 	0.11709018435476
scalar three_caches_scenario_3_links_network.node[3].content_store 	hits[3] 	3525
scalar three_caches_scenario_3_links_network.node[3].content_store 	misses[3] 	26580
scalar three_caches_scenario_3_links_network.node[3].content_store 	decision_yes[3] 	31
scalar three_caches_scenario_3_links_network.node[3].content_store 	decision_no[3] 	26549
scalar three_caches_scenario_3_links_network.node[4].core_layer 	interests[4] 	29964
scalar three_caches_scenario_3_links_network.node[4].core_layer 	repo_load[4] 	29964
scalar three_caches_scenario_3_links_network.node[4].core_layer 	data[4] 	0
scalar three_caches_scenario_3_links_network.node[4].content_store 	p_hit[4] 	0
scalar three_caches_scenario_3_links_network.node[4].content_store 	hits[4] 	0
scalar three_caches_scenario_3_links_network.node[4].content_store 	misses[4] 	29964
scalar three_caches_scenario_3_links_network.node[4].content_store 	decision_yes[4] 	0
scalar three_caches_scenario_3_links_network.node[4].content_store 	decision_no[4] 	29964
scalar three_caches_scenario_3_links_network.node[5].core_layer 	interests[5] 	26634
scalar three_caches_scenario_3_links_network.node[5].core_layer 	repo_load[5] 	26634
scalar three_caches_scenario_3_links_network.node[5].core_layer 	data[5] 	0
scalar three_caches_scenario_3_links_network.node[5].content_store 	p_hit[5] 	0
scalar three_caches_scenario_3_links_network.node[5].content_store 	hits[5] 	0
scalar three_caches_scenario_3_links_network.node[5].content_store 	misses[5] 	26634
scalar three_caches_scenario_3_links_network.node[5].content_store 	decision_yes[5] 	0
scalar three_caches_scenario_3_links_network.node[5].content_store 	decision_no[5] 	26634
scalar three_caches_scenario_3_links_network.node[6].core_layer 	interests[6] 	26580
scalar three_caches_scenario_3_links_network.node[6].core_layer 	repo_load[6] 	26580
scalar three_caches_scenario_3_links_network.node[6].core_layer 	data[6] 	0
scalar three_caches_scenario_3_links_network.node[6].content_store 	p_hit[6] 	0
scalar three_caches_scenario_3_links_network.node[6].content_store 	hits[6] 	0
scalar three_caches_scenario_3_links_network.node[6].content_store 	misses[6] 	26580
scalar three_caches_scenario_3_links_network.node[6].content_store 	decision_yes[6] 	0
scalar three_caches_scenario_3_links_network.node[6].content_store 	decision_no[6] 	26580
scalar three_caches_scenario_3_links_network.client[0] 	hdistance[0] 	1.260042060405
scalar three_caches_scenario_3_links_network.client[0] 	downloads[0] 	180217
scalar three_caches_scenario_3_links_network.client[0] 	avg_time[0] 	0
scalar three_caches_scenario_3_links_network.client[0] 	interests_sent[0] 	180217
