version 2
run General-1-20140512-16:42:19-30053
attr D costprobprodcorr0.01
attr F spr
attr R lru
attr a 1
attr configname General
attr csize 1e3
attr ctlg 1e5
attr datetime 20140512-16:42:19
attr experiment General
attr inifile omnetpp.ini
attr iterationvars "$net=abilene_cost, $rep=1, $priceratiovalue=10, $weights=0.333_0.333_0.334, $a=1, $ctlg=1e5, $F=spr, $ttl=1000, $D=costprobprodcorr0.01, $xi=0.25, $R=lru, $csize=1e3"
attr iterationvars2 "$net=abilene_cost, $rep=1, $priceratiovalue=10, $weights=0.333_0.333_0.334, $a=1, $ctlg=1e5, $F=spr, $ttl=1000, $D=costprobprodcorr0.01, $xi=0.25, $R=lru, $csize=1e3, $repetition=0"
attr measurement "$net=abilene_cost, $rep=1, $priceratiovalue=10, $weights=0.333_0.333_0.334, $a=1, $ctlg=1e5, $F=spr, $ttl=1000, $D=costprobprodcorr0.01, $xi=0.25, $R=lru, $csize=1e3"
attr net abilene_cost
attr network networks.${net=abilene_cost}_network
attr priceratiovalue 10
attr processid 30053
attr rep 1
attr repetition 0
attr replication #0
attr resultdir results
attr runnumber 1
attr seedset 1
attr ttl 1000
attr weights 0.333_0.333_0.334
attr xi 0.25

scalar . 	a 	1
scalar . 	csize 	1e3
scalar . 	ctlg 	1e5
scalar . 	priceratiovalue 	10
scalar . 	rep 	1
scalar . 	ttl 	1000
scalar . 	xi 	0.25
scalar abilene_cost_network.content_distribution 	repo-0 	11
scalar abilene_cost_network.content_distribution 	repo-1 	12
scalar abilene_cost_network.content_distribution 	repo-2 	13
scalar abilene_cost_network.content_distribution 	client-0 	3
scalar abilene_cost_network.content_distribution 	client-1 	7
scalar abilene_cost_network.content_distribution 	client-2 	10
scalar abilene_cost_network.content_distribution 	repo-0_card 	33396
scalar abilene_cost_network.content_distribution 	repo-1_card 	33039
scalar abilene_cost_network.content_distribution 	repo-2_card 	33565
scalar abilene_cost_network.statistics 	p_hit 	0.11161272202471
scalar abilene_cost_network.statistics 	interests 	141401.57142857
scalar abilene_cost_network.statistics 	data 	102897.92857143
scalar abilene_cost_network.statistics 	hdistance 	3.2626344751032
scalar abilene_cost_network.statistics 	avg_time 	0
scalar abilene_cost_network.statistics 	downloads 	539051
scalar abilene_cost_network.statistics 	total_cost 	928760
scalar abilene_cost_network.statistics 	total_replicas 	100000
scalar abilene_cost_network.statistics 	interests_sent 	539051
scalar abilene_cost_network.node[0].core_layer 	interests[0] 	153773
scalar abilene_cost_network.node[0].core_layer 	data[0] 	153773
scalar abilene_cost_network.node[0].core_layer 	repo_int[0] 	318100
scalar abilene_cost_network.node[0].content_store 	p_hit[0] 	0
scalar abilene_cost_network.node[0].content_store 	hits[0] 	0
scalar abilene_cost_network.node[0].content_store 	misses[0] 	153773
scalar abilene_cost_network.node[0].content_store 	decision_yes[0] 	0
scalar abilene_cost_network.node[0].content_store 	decision_no[0] 	153773
scalar abilene_cost_network.node[0].content_store 	decision_ratio[0] 	0
scalar abilene_cost_network.node[0].content_store 	correction_factor[0] 	0.010788122829233
scalar abilene_cost_network.node[0].content_store 	xi[0] 	0.25
scalar abilene_cost_network.node[1].core_layer 	interests[1] 	102928
scalar abilene_cost_network.node[1].core_layer 	data[1] 	97231
scalar abilene_cost_network.node[1].content_store 	p_hit[1] 	0.055349370433701
scalar abilene_cost_network.node[1].content_store 	hits[1] 	5697
scalar abilene_cost_network.node[1].content_store 	misses[1] 	97231
scalar abilene_cost_network.node[1].content_store 	decision_yes[1] 	278
scalar abilene_cost_network.node[1].content_store 	decision_no[1] 	96953
scalar abilene_cost_network.node[1].content_store 	decision_ratio[1] 	0.0028591704291841
scalar abilene_cost_network.node[1].content_store 	correction_factor[1] 	0.010788122829233
scalar abilene_cost_network.node[1].content_store 	xi[1] 	0.25
scalar abilene_cost_network.node[2].core_layer 	interests[2] 	97231
scalar abilene_cost_network.node[2].core_layer 	data[2] 	93693
scalar abilene_cost_network.node[2].content_store 	p_hit[2] 	0.03638757186494
scalar abilene_cost_network.node[2].content_store 	hits[2] 	3538
scalar abilene_cost_network.node[2].content_store 	misses[2] 	93693
scalar abilene_cost_network.node[2].content_store 	decision_yes[2] 	237
scalar abilene_cost_network.node[2].content_store 	decision_no[2] 	93456
scalar abilene_cost_network.node[2].content_store 	decision_ratio[2] 	0.0025295379590791
scalar abilene_cost_network.node[2].content_store 	correction_factor[2] 	0.010788122829233
scalar abilene_cost_network.node[2].content_store 	xi[2] 	0.25
scalar abilene_cost_network.node[3].core_layer 	interests[3] 	222276
scalar abilene_cost_network.node[3].core_layer 	data[3] 	198046
scalar abilene_cost_network.node[3].content_store 	p_hit[3] 	0.10900861991398
scalar abilene_cost_network.node[3].content_store 	hits[3] 	24230
scalar abilene_cost_network.node[3].content_store 	misses[3] 	198046
scalar abilene_cost_network.node[3].content_store 	decision_yes[3] 	1167
scalar abilene_cost_network.node[3].content_store 	decision_no[3] 	196879
scalar abilene_cost_network.node[3].content_store 	decision_ratio[3] 	0.0058925704129344
scalar abilene_cost_network.node[3].content_store 	correction_factor[3] 	0.010788122829233
scalar abilene_cost_network.node[3].content_store 	xi[3] 	0.25
scalar abilene_cost_network.node[4].core_layer 	interests[4] 	76538
scalar abilene_cost_network.node[4].core_layer 	data[4] 	68332
scalar abilene_cost_network.node[4].content_store 	p_hit[4] 	0.10721471687266
scalar abilene_cost_network.node[4].content_store 	hits[4] 	8206
scalar abilene_cost_network.node[4].content_store 	misses[4] 	68332
scalar abilene_cost_network.node[4].content_store 	decision_yes[4] 	563
scalar abilene_cost_network.node[4].content_store 	decision_no[4] 	67769
scalar abilene_cost_network.node[4].content_store 	decision_ratio[4] 	0.0082391851548323
scalar abilene_cost_network.node[4].content_store 	correction_factor[4] 	0.010788122829233
scalar abilene_cost_network.node[4].content_store 	xi[4] 	0.25
scalar abilene_cost_network.node[5].core_layer 	interests[5] 	104293
scalar abilene_cost_network.node[5].core_layer 	data[5] 	79390
scalar abilene_cost_network.node[5].content_store 	p_hit[5] 	0.23877920857584
scalar abilene_cost_network.node[5].content_store 	hits[5] 	24903
scalar abilene_cost_network.node[5].content_store 	misses[5] 	79390
scalar abilene_cost_network.node[5].content_store 	decision_yes[5] 	878
scalar abilene_cost_network.node[5].content_store 	decision_no[5] 	78512
scalar abilene_cost_network.node[5].content_store 	decision_ratio[5] 	0.011059327371205
scalar abilene_cost_network.node[5].content_store 	correction_factor[5] 	0.010788122829233
scalar abilene_cost_network.node[5].content_store 	xi[5] 	0.25
scalar abilene_cost_network.node[6].core_layer 	interests[6] 	44639
scalar abilene_cost_network.node[6].core_layer 	data[6] 	35961
scalar abilene_cost_network.node[6].content_store 	p_hit[6] 	0.1944039965053
scalar abilene_cost_network.node[6].content_store 	hits[6] 	8678
scalar abilene_cost_network.node[6].content_store 	misses[6] 	35961
scalar abilene_cost_network.node[6].content_store 	decision_yes[6] 	262
scalar abilene_cost_network.node[6].content_store 	decision_no[6] 	35699
scalar abilene_cost_network.node[6].content_store 	decision_ratio[6] 	0.007285670587581
scalar abilene_cost_network.node[6].content_store 	correction_factor[6] 	0.010788122829233
scalar abilene_cost_network.node[6].content_store 	xi[6] 	0.25
scalar abilene_cost_network.node[7].core_layer 	interests[7] 	249757
scalar abilene_cost_network.node[7].core_layer 	data[7] 	209405
scalar abilene_cost_network.node[7].content_store 	p_hit[7] 	0.16156504122007
scalar abilene_cost_network.node[7].content_store 	hits[7] 	40352
scalar abilene_cost_network.node[7].content_store 	misses[7] 	209405
scalar abilene_cost_network.node[7].content_store 	decision_yes[7] 	1413
scalar abilene_cost_network.node[7].content_store 	decision_no[7] 	207992
scalar abilene_cost_network.node[7].content_store 	decision_ratio[7] 	0.0067476898832406
scalar abilene_cost_network.node[7].content_store 	correction_factor[7] 	0.010788122829233
scalar abilene_cost_network.node[7].content_store 	xi[7] 	0.25
scalar abilene_cost_network.node[8].core_layer 	interests[8] 	164766
scalar abilene_cost_network.node[8].core_layer 	data[8] 	153827
scalar abilene_cost_network.node[8].content_store 	p_hit[8] 	0.066391124382458
scalar abilene_cost_network.node[8].content_store 	hits[8] 	10939
scalar abilene_cost_network.node[8].content_store 	misses[8] 	153827
scalar abilene_cost_network.node[8].content_store 	decision_yes[8] 	1105
scalar abilene_cost_network.node[8].content_store 	decision_no[8] 	152722
scalar abilene_cost_network.node[8].content_store 	decision_ratio[8] 	0.0071833943325944
scalar abilene_cost_network.node[8].content_store 	correction_factor[8] 	0.010788122829233
scalar abilene_cost_network.node[8].content_store 	xi[8] 	0.25
scalar abilene_cost_network.node[9].core_layer 	interests[9] 	214326
scalar abilene_cost_network.node[9].core_layer 	data[9] 	136115
scalar abilene_cost_network.node[9].content_store 	p_hit[9] 	0.36491606244693
scalar abilene_cost_network.node[9].content_store 	hits[9] 	78211
scalar abilene_cost_network.node[9].content_store 	misses[9] 	136115
scalar abilene_cost_network.node[9].content_store 	decision_yes[9] 	1580
scalar abilene_cost_network.node[9].content_store 	decision_no[9] 	134535
scalar abilene_cost_network.node[9].content_store 	decision_ratio[9] 	0.011607831612974
scalar abilene_cost_network.node[9].content_store 	correction_factor[9] 	0.010788122829233
scalar abilene_cost_network.node[9].content_store 	xi[9] 	0.25
scalar abilene_cost_network.node[10].core_layer 	interests[10] 	230995
scalar abilene_cost_network.node[10].core_layer 	data[10] 	214798
scalar abilene_cost_network.node[10].content_store 	p_hit[10] 	0.070118400831187
scalar abilene_cost_network.node[10].content_store 	hits[10] 	16197
scalar abilene_cost_network.node[10].content_store 	misses[10] 	214798
scalar abilene_cost_network.node[10].content_store 	decision_yes[10] 	831
scalar abilene_cost_network.node[10].content_store 	decision_no[10] 	213967
scalar abilene_cost_network.node[10].content_store 	decision_ratio[10] 	0.00386875110569
scalar abilene_cost_network.node[10].content_store 	correction_factor[10] 	0.010788122829233
scalar abilene_cost_network.node[10].content_store 	xi[10] 	0.25
scalar abilene_cost_network.node[11].core_layer 	interests[11] 	153773
scalar abilene_cost_network.node[11].core_layer 	repo_load[11] 	153773
scalar abilene_cost_network.node[11].core_layer 	data[11] 	0
scalar abilene_cost_network.node[11].content_store 	p_hit[11] 	0
scalar abilene_cost_network.node[11].content_store 	hits[11] 	0
scalar abilene_cost_network.node[11].content_store 	misses[11] 	153773
scalar abilene_cost_network.node[11].content_store 	decision_yes[11] 	0
scalar abilene_cost_network.node[11].content_store 	decision_no[11] 	153773
scalar abilene_cost_network.node[11].content_store 	decision_ratio[11] 	0
scalar abilene_cost_network.node[12].core_layer 	interests[12] 	79390
scalar abilene_cost_network.node[12].core_layer 	repo_load[12] 	79390
scalar abilene_cost_network.node[12].core_layer 	data[12] 	0
scalar abilene_cost_network.node[12].content_store 	p_hit[12] 	0
scalar abilene_cost_network.node[12].content_store 	hits[12] 	0
scalar abilene_cost_network.node[12].content_store 	misses[12] 	79390
scalar abilene_cost_network.node[12].content_store 	decision_yes[12] 	0
scalar abilene_cost_network.node[12].content_store 	decision_no[12] 	79390
scalar abilene_cost_network.node[12].content_store 	decision_ratio[12] 	0
scalar abilene_cost_network.node[13].core_layer 	interests[13] 	84937
scalar abilene_cost_network.node[13].core_layer 	repo_load[13] 	84937
scalar abilene_cost_network.node[13].core_layer 	data[13] 	0
scalar abilene_cost_network.node[13].content_store 	p_hit[13] 	0
scalar abilene_cost_network.node[13].content_store 	hits[13] 	0
scalar abilene_cost_network.node[13].content_store 	misses[13] 	84937
scalar abilene_cost_network.node[13].content_store 	decision_yes[13] 	0
scalar abilene_cost_network.node[13].content_store 	decision_no[13] 	84937
scalar abilene_cost_network.node[13].content_store 	decision_ratio[13] 	0
scalar abilene_cost_network.client[3] 	hdistance[3] 	3.4543118408757
scalar abilene_cost_network.client[3] 	downloads[3] 	179784
scalar abilene_cost_network.client[3] 	avg_time[3] 	0
scalar abilene_cost_network.client[3] 	interests_sent[3] 	179784
scalar abilene_cost_network.client[7] 	hdistance[7] 	3.3962886597938
scalar abilene_cost_network.client[7] 	downloads[7] 	179450
scalar abilene_cost_network.client[7] 	avg_time[7] 	0
scalar abilene_cost_network.client[7] 	interests_sent[7] 	179450
scalar abilene_cost_network.client[10] 	hdistance[10] 	2.9373029246401
scalar abilene_cost_network.client[10] 	downloads[10] 	179817
scalar abilene_cost_network.client[10] 	avg_time[10] 	0
scalar abilene_cost_network.client[10] 	interests_sent[10] 	179817
