version 2
run General-5583-20140423-20:53:03-353
attr D fix0.1
attr F nrr
attr R lru
attr a 0
attr configname General
attr csize 2
attr ctlg 10^3
attr datetime 20140423-20:53:03
attr experiment General
attr inifile omnetpp.ini
attr iterationvars "$net=simple_scenario, $rep=16, $priceratiovalue=6, $a=0, $ctlg=10^3, $F=nrr, $ttl=1000, $D=fix0.1, $R=lru, $csize=2"
attr iterationvars2 "$net=simple_scenario, $rep=16, $priceratiovalue=6, $a=0, $ctlg=10^3, $F=nrr, $ttl=1000, $D=fix0.1, $R=lru, $csize=2, $repetition=0"
attr measurement "$net=simple_scenario, $rep=16, $priceratiovalue=6, $a=0, $ctlg=10^3, $F=nrr, $ttl=1000, $D=fix0.1, $R=lru, $csize=2"
attr net simple_scenario
attr network networks.${net=simple_scenario}_network
attr priceratiovalue 6
attr processid 353
attr rep 16
attr repetition 0
attr replication #0
attr resultdir results
attr runnumber 5583
attr seedset 16
attr ttl 1000

scalar . 	a 	0
scalar . 	csize 	2
scalar . 	priceratiovalue 	6
scalar . 	rep 	16
scalar . 	ttl 	1000
scalar simple_scenario_network.content_distribution 	repo-0 	3
scalar simple_scenario_network.content_distribution 	repo-1 	4
scalar simple_scenario_network.content_distribution 	client-0 	0
scalar simple_scenario_network.content_distribution 	repo-0_card 	495
scalar simple_scenario_network.content_distribution 	repo-1_card 	505
scalar simple_scenario_network.statistics 	p_hit 	0.0020143344798687
scalar simple_scenario_network.statistics 	interests 	107628.6
scalar simple_scenario_network.statistics 	data 	71655.8
scalar simple_scenario_network.statistics 	hdistance 	2.9859171373927
scalar simple_scenario_network.statistics 	avg_time 	0.001999728326
scalar simple_scenario_network.statistics 	downloads 	179864
scalar simple_scenario_network.statistics 	total_cost 	90082
scalar simple_scenario_network.node[0].core_layer 	interests[0] 	179864
scalar simple_scenario_network.node[0].core_layer 	data[0] 	179499
scalar simple_scenario_network.node[0].core_layer 	repo_int[0] 	178780
scalar simple_scenario_network.node[0].content_store 	p_hit[0] 	0.0020293110350042
scalar simple_scenario_network.node[0].content_store 	hits[0] 	365
scalar simple_scenario_network.node[0].content_store 	misses[0] 	179499
scalar simple_scenario_network.node[1].core_layer 	interests[1] 	88779
scalar simple_scenario_network.node[1].core_layer 	data[1] 	88420
scalar simple_scenario_network.node[1].content_store 	p_hit[1] 	0.0040437490848061
scalar simple_scenario_network.node[1].content_store 	hits[1] 	359
scalar simple_scenario_network.node[1].content_store 	misses[1] 	88420
scalar simple_scenario_network.node[2].core_layer 	interests[2] 	90720
scalar simple_scenario_network.node[2].core_layer 	data[2] 	90360
scalar simple_scenario_network.node[2].content_store 	p_hit[2] 	0.003968253968254
scalar simple_scenario_network.node[2].content_store 	hits[2] 	360
scalar simple_scenario_network.node[2].content_store 	misses[2] 	90360
scalar simple_scenario_network.node[3].core_layer 	interests[3] 	88420
scalar simple_scenario_network.node[3].core_layer 	repo_load[3] 	88420
scalar simple_scenario_network.node[3].core_layer 	data[3] 	0
scalar simple_scenario_network.node[3].content_store 	p_hit[3] 	0
scalar simple_scenario_network.node[3].content_store 	hits[3] 	0
scalar simple_scenario_network.node[3].content_store 	misses[3] 	88420
scalar simple_scenario_network.node[4].core_layer 	interests[4] 	90360
scalar simple_scenario_network.node[4].core_layer 	repo_load[4] 	90360
scalar simple_scenario_network.node[4].core_layer 	data[4] 	0
scalar simple_scenario_network.node[4].content_store 	p_hit[4] 	0
scalar simple_scenario_network.node[4].content_store 	hits[4] 	0
scalar simple_scenario_network.node[4].content_store 	misses[4] 	90360
scalar simple_scenario_network.client[0] 	hdistance[0] 	2.9859171373927
scalar simple_scenario_network.client[0] 	downloads[0] 	179864
scalar simple_scenario_network.client[0] 	avg_time[0] 	0.001999728326
