version 2
run General-1623-20140423-19:13:06-27524
attr D fix0.1
attr F nrr
attr R lru
attr a 0
attr configname General
attr csize 2
attr ctlg 10^3
attr datetime 20140423-19:13:06
attr experiment General
attr inifile omnetpp.ini
attr iterationvars "$net=simple_scenario, $rep=5, $priceratiovalue=6, $a=0, $ctlg=10^3, $F=nrr, $ttl=1000, $D=fix0.1, $R=lru, $csize=2"
attr iterationvars2 "$net=simple_scenario, $rep=5, $priceratiovalue=6, $a=0, $ctlg=10^3, $F=nrr, $ttl=1000, $D=fix0.1, $R=lru, $csize=2, $repetition=0"
attr measurement "$net=simple_scenario, $rep=5, $priceratiovalue=6, $a=0, $ctlg=10^3, $F=nrr, $ttl=1000, $D=fix0.1, $R=lru, $csize=2"
attr net simple_scenario
attr network networks.${net=simple_scenario}_network
attr priceratiovalue 6
attr processid 27524
attr rep 5
attr repetition 0
attr replication #0
attr resultdir results
attr runnumber 1623
attr seedset 5
attr ttl 1000

scalar . 	a 	0
scalar . 	csize 	2
scalar . 	priceratiovalue 	6
scalar . 	rep 	5
scalar . 	ttl 	1000
scalar simple_scenario_network.content_distribution 	repo-0 	3
scalar simple_scenario_network.content_distribution 	repo-1 	4
scalar simple_scenario_network.content_distribution 	client-0 	0
scalar simple_scenario_network.content_distribution 	repo-0_card 	495
scalar simple_scenario_network.content_distribution 	repo-1_card 	505
scalar simple_scenario_network.statistics 	p_hit 	0.0018853240063971
scalar simple_scenario_network.statistics 	interests 	107673.8
scalar simple_scenario_network.statistics 	data 	71691.8
scalar simple_scenario_network.statistics 	hdistance 	2.9867933966984
scalar simple_scenario_network.statistics 	avg_time 	0.0019997771
scalar simple_scenario_network.statistics 	downloads 	179910
scalar simple_scenario_network.statistics 	total_cost 	90331
scalar simple_scenario_network.node[0].core_layer 	interests[0] 	179910
scalar simple_scenario_network.node[0].core_layer 	data[0] 	179564
scalar simple_scenario_network.node[0].core_layer 	repo_int[0] 	178895
scalar simple_scenario_network.node[0].content_store 	p_hit[0] 	0.0019231838141293
scalar simple_scenario_network.node[0].content_store 	hits[0] 	346
scalar simple_scenario_network.node[0].content_store 	misses[0] 	179564
scalar simple_scenario_network.node[1].core_layer 	interests[1] 	88522
scalar simple_scenario_network.node[1].core_layer 	data[1] 	88209
scalar simple_scenario_network.node[1].content_store 	p_hit[1] 	0.0035358441969228
scalar simple_scenario_network.node[1].content_store 	hits[1] 	313
scalar simple_scenario_network.node[1].content_store 	misses[1] 	88209
scalar simple_scenario_network.node[2].core_layer 	interests[2] 	91042
scalar simple_scenario_network.node[2].core_layer 	data[2] 	90686
scalar simple_scenario_network.node[2].content_store 	p_hit[2] 	0.0039102831660113
scalar simple_scenario_network.node[2].content_store 	hits[2] 	356
scalar simple_scenario_network.node[2].content_store 	misses[2] 	90686
scalar simple_scenario_network.node[3].core_layer 	interests[3] 	88209
scalar simple_scenario_network.node[3].core_layer 	repo_load[3] 	88209
scalar simple_scenario_network.node[3].core_layer 	data[3] 	0
scalar simple_scenario_network.node[3].content_store 	p_hit[3] 	0
scalar simple_scenario_network.node[3].content_store 	hits[3] 	0
scalar simple_scenario_network.node[3].content_store 	misses[3] 	88209
scalar simple_scenario_network.node[4].core_layer 	interests[4] 	90686
scalar simple_scenario_network.node[4].core_layer 	repo_load[4] 	90686
scalar simple_scenario_network.node[4].core_layer 	data[4] 	0
scalar simple_scenario_network.node[4].content_store 	p_hit[4] 	0
scalar simple_scenario_network.node[4].content_store 	hits[4] 	0
scalar simple_scenario_network.node[4].content_store 	misses[4] 	90686
scalar simple_scenario_network.client[0] 	hdistance[0] 	2.9867933966984
scalar simple_scenario_network.client[0] 	downloads[0] 	179910
scalar simple_scenario_network.client[0] 	avg_time[0] 	0.0019997771
