version 2
run General-2138-20140502-05:11:10-11077
attr D costprob0.5
attr F nrr
attr R lru
attr a 1
attr configname General
attr csize 1e3
attr ctlg 1e5
attr datetime 20140502-05:11:10
attr experiment General
attr inifile omnetpp.ini
attr iterationvars "$net=three_caches_scenario_3_links, $rep=4, $priceratiovalue=5, $weights=0_0.5_0.5, $a=1, $ctlg=1e5, $F=nrr, $ttl=1000, $D=costprob0.5, $xi=1, $R=lru, $csize=1e3"
attr iterationvars2 "$net=three_caches_scenario_3_links, $rep=4, $priceratiovalue=5, $weights=0_0.5_0.5, $a=1, $ctlg=1e5, $F=nrr, $ttl=1000, $D=costprob0.5, $xi=1, $R=lru, $csize=1e3, $repetition=0"
attr measurement "$net=three_caches_scenario_3_links, $rep=4, $priceratiovalue=5, $weights=0_0.5_0.5, $a=1, $ctlg=1e5, $F=nrr, $ttl=1000, $D=costprob0.5, $xi=1, $R=lru, $csize=1e3"
attr net three_caches_scenario_3_links
attr network networks.${net=three_caches_scenario_3_links}_network
attr priceratiovalue 5
attr processid 11077
attr rep 4
attr repetition 0
attr replication #0
attr resultdir results
attr runnumber 2138
attr seedset 4
attr ttl 1000
attr weights 0_0.5_0.5
attr xi 1

scalar . 	a 	1
scalar . 	csize 	1e3
scalar . 	ctlg 	1e5
scalar . 	priceratiovalue 	5
scalar . 	rep 	4
scalar . 	ttl 	1000
scalar . 	xi 	1
scalar three_caches_scenario_3_links_network.content_distribution 	repo-0 	4
scalar three_caches_scenario_3_links_network.content_distribution 	repo-1 	5
scalar three_caches_scenario_3_links_network.content_distribution 	repo-2 	6
scalar three_caches_scenario_3_links_network.content_distribution 	client-0 	0
scalar three_caches_scenario_3_links_network.content_distribution 	repo-0_card 	0
scalar three_caches_scenario_3_links_network.content_distribution 	repo-1_card 	50243
scalar three_caches_scenario_3_links_network.content_distribution 	repo-2_card 	49757
scalar three_caches_scenario_3_links_network.statistics 	p_hit 	0.22174725693122
scalar three_caches_scenario_3_links_network.statistics 	interests 	57782
scalar three_caches_scenario_3_links_network.statistics 	data 	32072.142857143
scalar three_caches_scenario_3_links_network.statistics 	hdistance 	1.7490956775889
scalar three_caches_scenario_3_links_network.statistics 	avg_time 	0
scalar three_caches_scenario_3_links_network.statistics 	downloads 	179969
scalar three_caches_scenario_3_links_network.statistics 	total_cost 	275138
scalar three_caches_scenario_3_links_network.statistics 	total_replicas 	100000
scalar three_caches_scenario_3_links_network.statistics 	interests_sent 	179969
scalar three_caches_scenario_3_links_network.node[0].core_layer 	interests[0] 	179969
scalar three_caches_scenario_3_links_network.node[0].core_layer 	data[0] 	134227
scalar three_caches_scenario_3_links_network.node[0].core_layer 	repo_int[0] 	90278
scalar three_caches_scenario_3_links_network.node[0].content_store 	p_hit[0] 	0.25416599525474
scalar three_caches_scenario_3_links_network.node[0].content_store 	hits[0] 	45742
scalar three_caches_scenario_3_links_network.node[0].content_store 	misses[0] 	134227
scalar three_caches_scenario_3_links_network.node[0].content_store 	decision_yes[0] 	46076
scalar three_caches_scenario_3_links_network.node[0].content_store 	decision_no[0] 	88151
scalar three_caches_scenario_3_links_network.node[1].core_layer 	interests[1] 	0
scalar three_caches_scenario_3_links_network.node[1].core_layer 	data[1] 	0
scalar three_caches_scenario_3_links_network.node[1].content_store 	p_hit[1] 	-nan
scalar three_caches_scenario_3_links_network.node[1].content_store 	hits[1] 	0
scalar three_caches_scenario_3_links_network.node[1].content_store 	misses[1] 	0
scalar three_caches_scenario_3_links_network.node[1].content_store 	decision_yes[1] 	0
scalar three_caches_scenario_3_links_network.node[1].content_store 	decision_no[1] 	0
scalar three_caches_scenario_3_links_network.node[2].core_layer 	interests[2] 	81964
scalar three_caches_scenario_3_links_network.node[2].core_layer 	data[2] 	44063
scalar three_caches_scenario_3_links_network.node[2].content_store 	p_hit[2] 	0.4624103264848
scalar three_caches_scenario_3_links_network.node[2].content_store 	hits[2] 	37901
scalar three_caches_scenario_3_links_network.node[2].content_store 	misses[2] 	44063
scalar three_caches_scenario_3_links_network.node[2].content_store 	decision_yes[2] 	7292
scalar three_caches_scenario_3_links_network.node[2].content_store 	decision_no[2] 	36771
scalar three_caches_scenario_3_links_network.node[3].core_layer 	interests[3] 	52263
scalar three_caches_scenario_3_links_network.node[3].core_layer 	data[3] 	46215
scalar three_caches_scenario_3_links_network.node[3].content_store 	p_hit[3] 	0.11572240399518
scalar three_caches_scenario_3_links_network.node[3].content_store 	hits[3] 	6048
scalar three_caches_scenario_3_links_network.node[3].content_store 	misses[3] 	46215
scalar three_caches_scenario_3_links_network.node[3].content_store 	decision_yes[3] 	38521
scalar three_caches_scenario_3_links_network.node[3].content_store 	decision_no[3] 	7694
scalar three_caches_scenario_3_links_network.node[4].core_layer 	interests[4] 	0
scalar three_caches_scenario_3_links_network.node[4].core_layer 	data[4] 	0
scalar three_caches_scenario_3_links_network.node[4].content_store 	p_hit[4] 	-nan
scalar three_caches_scenario_3_links_network.node[4].content_store 	hits[4] 	0
scalar three_caches_scenario_3_links_network.node[4].content_store 	misses[4] 	0
scalar three_caches_scenario_3_links_network.node[4].content_store 	decision_yes[4] 	0
scalar three_caches_scenario_3_links_network.node[4].content_store 	decision_no[4] 	0
scalar three_caches_scenario_3_links_network.node[5].core_layer 	interests[5] 	44063
scalar three_caches_scenario_3_links_network.node[5].core_layer 	repo_load[5] 	44063
scalar three_caches_scenario_3_links_network.node[5].core_layer 	data[5] 	0
scalar three_caches_scenario_3_links_network.node[5].content_store 	p_hit[5] 	0
scalar three_caches_scenario_3_links_network.node[5].content_store 	hits[5] 	0
scalar three_caches_scenario_3_links_network.node[5].content_store 	misses[5] 	44063
scalar three_caches_scenario_3_links_network.node[5].content_store 	decision_yes[5] 	0
scalar three_caches_scenario_3_links_network.node[5].content_store 	decision_no[5] 	44063
scalar three_caches_scenario_3_links_network.node[6].core_layer 	interests[6] 	46215
scalar three_caches_scenario_3_links_network.node[6].core_layer 	repo_load[6] 	46215
scalar three_caches_scenario_3_links_network.node[6].core_layer 	data[6] 	0
scalar three_caches_scenario_3_links_network.node[6].content_store 	p_hit[6] 	0
scalar three_caches_scenario_3_links_network.node[6].content_store 	hits[6] 	0
scalar three_caches_scenario_3_links_network.node[6].content_store 	misses[6] 	46215
scalar three_caches_scenario_3_links_network.node[6].content_store 	decision_yes[6] 	0
scalar three_caches_scenario_3_links_network.node[6].content_store 	decision_no[6] 	46215
scalar three_caches_scenario_3_links_network.client[0] 	hdistance[0] 	1.7490956775889
scalar three_caches_scenario_3_links_network.client[0] 	downloads[0] 	179969
scalar three_caches_scenario_3_links_network.client[0] 	avg_time[0] 	0
scalar three_caches_scenario_3_links_network.client[0] 	interests_sent[0] 	179969
