version 2
run General-2033-20140421-20:48:13-16830
attr D costprob0.01
attr F nrr
attr R lru
attr a 0.8
attr configname General
attr csize 10
attr ctlg 10^3
attr datetime 20140421-20:48:13
attr experiment General
attr inifile omnetpp.ini
attr iterationvars "$net=simple_scenario, $rep=39, $priceratiovalue=9, $a=0.8, $ctlg=10^3, $F=nrr, $ttl=1000, $D=costprob0.01, $R=lru, $csize=10"
attr iterationvars2 "$net=simple_scenario, $rep=39, $priceratiovalue=9, $a=0.8, $ctlg=10^3, $F=nrr, $ttl=1000, $D=costprob0.01, $R=lru, $csize=10, $repetition=0"
attr measurement "$net=simple_scenario, $rep=39, $priceratiovalue=9, $a=0.8, $ctlg=10^3, $F=nrr, $ttl=1000, $D=costprob0.01, $R=lru, $csize=10"
attr net simple_scenario
attr network networks.${net=simple_scenario}_network
attr priceratiovalue 9
attr processid 16830
attr rep 39
attr repetition 0
attr replication #0
attr resultdir results
attr runnumber 2033
attr seedset 39
attr ttl 1000

scalar . 	a 	0.8
scalar . 	csize 	10
scalar . 	priceratiovalue 	9
scalar . 	rep 	39
scalar . 	ttl 	1000
scalar simple_scenario_network.content_distribution 	repo-0 	3
scalar simple_scenario_network.content_distribution 	repo-1 	4
scalar simple_scenario_network.content_distribution 	client-0 	0
scalar simple_scenario_network.content_distribution 	repo-0_card 	494
scalar simple_scenario_network.content_distribution 	repo-1_card 	506
scalar simple_scenario_network.statistics 	p_hit 	0.11409636709608
scalar simple_scenario_network.statistics 	interests 	91442
scalar simple_scenario_network.statistics 	data 	55497.4
scalar simple_scenario_network.statistics 	hdistance 	2.2537001179586
scalar simple_scenario_network.statistics 	avg_time 	0.001998060337
scalar simple_scenario_network.statistics 	downloads 	179724
scalar simple_scenario_network.statistics 	total_cost 	61658
scalar simple_scenario_network.node[0].core_layer 	interests[0] 	179723
scalar simple_scenario_network.node[0].core_layer 	data[0] 	149930
scalar simple_scenario_network.node[0].core_layer 	repo_int[0] 	127557
scalar simple_scenario_network.node[0].content_store 	p_hit[0] 	0.16577177100315
scalar simple_scenario_network.node[0].content_store 	hits[0] 	29793
scalar simple_scenario_network.node[0].content_store 	misses[0] 	149930
scalar simple_scenario_network.node[1].core_layer 	interests[1] 	79740
scalar simple_scenario_network.node[1].core_layer 	data[1] 	66428
scalar simple_scenario_network.node[1].content_store 	p_hit[1] 	0.16694256333083
scalar simple_scenario_network.node[1].content_store 	hits[1] 	13312
scalar simple_scenario_network.node[1].content_store 	misses[1] 	66428
scalar simple_scenario_network.node[2].core_layer 	interests[2] 	70190
scalar simple_scenario_network.node[2].core_layer 	data[2] 	61129
scalar simple_scenario_network.node[2].content_store 	p_hit[2] 	0.12909246331386
scalar simple_scenario_network.node[2].content_store 	hits[2] 	9061
scalar simple_scenario_network.node[2].content_store 	misses[2] 	61129
scalar simple_scenario_network.node[3].core_layer 	interests[3] 	66428
scalar simple_scenario_network.node[3].core_layer 	repo_load[3] 	66428
scalar simple_scenario_network.node[3].core_layer 	data[3] 	0
scalar simple_scenario_network.node[3].content_store 	p_hit[3] 	0
scalar simple_scenario_network.node[3].content_store 	hits[3] 	0
scalar simple_scenario_network.node[3].content_store 	misses[3] 	66428
scalar simple_scenario_network.node[4].core_layer 	interests[4] 	61129
scalar simple_scenario_network.node[4].core_layer 	repo_load[4] 	61129
scalar simple_scenario_network.node[4].core_layer 	data[4] 	0
scalar simple_scenario_network.node[4].content_store 	p_hit[4] 	0
scalar simple_scenario_network.node[4].content_store 	hits[4] 	0
scalar simple_scenario_network.node[4].content_store 	misses[4] 	61129
scalar simple_scenario_network.client[0] 	hdistance[0] 	2.2537001179586
scalar simple_scenario_network.client[0] 	downloads[0] 	179724
scalar simple_scenario_network.client[0] 	avg_time[0] 	0.001998060337
