version 2
run General-6209-20140423-21:08:53-1061
attr D prob_cache
attr F nrr
attr R lru
attr a 0.8
attr configname General
attr csize 2
attr ctlg 10^3
attr datetime 20140423-21:08:53
attr experiment General
attr inifile omnetpp.ini
attr iterationvars "$net=simple_scenario, $rep=18, $priceratiovalue=3, $a=0.8, $ctlg=10^3, $F=nrr, $ttl=1000, $D=prob_cache, $R=lru, $csize=2"
attr iterationvars2 "$net=simple_scenario, $rep=18, $priceratiovalue=3, $a=0.8, $ctlg=10^3, $F=nrr, $ttl=1000, $D=prob_cache, $R=lru, $csize=2, $repetition=0"
attr measurement "$net=simple_scenario, $rep=18, $priceratiovalue=3, $a=0.8, $ctlg=10^3, $F=nrr, $ttl=1000, $D=prob_cache, $R=lru, $csize=2"
attr net simple_scenario
attr network networks.${net=simple_scenario}_network
attr priceratiovalue 3
attr processid 1061
attr rep 18
attr repetition 0
attr replication #0
attr resultdir results
attr runnumber 6209
attr seedset 18
attr ttl 1000

scalar . 	a 	0.8
scalar . 	csize 	2
scalar . 	priceratiovalue 	3
scalar . 	rep 	18
scalar . 	ttl 	1000
scalar simple_scenario_network.content_distribution 	repo-0 	3
scalar simple_scenario_network.content_distribution 	repo-1 	4
scalar simple_scenario_network.content_distribution 	client-0 	0
scalar simple_scenario_network.content_distribution 	repo-0_card 	499
scalar simple_scenario_network.content_distribution 	repo-1_card 	501
scalar simple_scenario_network.statistics 	p_hit 	0.018669987470703
scalar simple_scenario_network.statistics 	interests 	104874.2
scalar simple_scenario_network.statistics 	data 	68991.4
scalar simple_scenario_network.statistics 	hdistance 	2.8681206594803
scalar simple_scenario_network.statistics 	avg_time 	0.001998277043
scalar simple_scenario_network.statistics 	downloads 	179414
scalar simple_scenario_network.statistics 	total_cost 	83184
scalar simple_scenario_network.node[0].core_layer 	interests[0] 	179414
scalar simple_scenario_network.node[0].core_layer 	data[0] 	175333
scalar simple_scenario_network.node[0].core_layer 	repo_int[0] 	169624
scalar simple_scenario_network.node[0].content_store 	p_hit[0] 	0.022746273980849
scalar simple_scenario_network.node[0].content_store 	hits[0] 	4081
scalar simple_scenario_network.node[0].content_store 	misses[0] 	175333
scalar simple_scenario_network.node[1].core_layer 	interests[1] 	91749
scalar simple_scenario_network.node[1].core_layer 	data[1] 	88068
scalar simple_scenario_network.node[1].content_store 	p_hit[1] 	0.040120328286957
scalar simple_scenario_network.node[1].content_store 	hits[1] 	3681
scalar simple_scenario_network.node[1].content_store 	misses[1] 	88068
scalar simple_scenario_network.node[2].core_layer 	interests[2] 	83584
scalar simple_scenario_network.node[2].core_layer 	data[2] 	81556
scalar simple_scenario_network.node[2].content_store 	p_hit[2] 	0.024263016845329
scalar simple_scenario_network.node[2].content_store 	hits[2] 	2028
scalar simple_scenario_network.node[2].content_store 	misses[2] 	81556
scalar simple_scenario_network.node[3].core_layer 	interests[3] 	88068
scalar simple_scenario_network.node[3].core_layer 	repo_load[3] 	88068
scalar simple_scenario_network.node[3].core_layer 	data[3] 	0
scalar simple_scenario_network.node[3].content_store 	p_hit[3] 	0
scalar simple_scenario_network.node[3].content_store 	hits[3] 	0
scalar simple_scenario_network.node[3].content_store 	misses[3] 	88068
scalar simple_scenario_network.node[4].core_layer 	interests[4] 	81556
scalar simple_scenario_network.node[4].core_layer 	repo_load[4] 	81556
scalar simple_scenario_network.node[4].core_layer 	data[4] 	0
scalar simple_scenario_network.node[4].content_store 	p_hit[4] 	0
scalar simple_scenario_network.node[4].content_store 	hits[4] 	0
scalar simple_scenario_network.node[4].content_store 	misses[4] 	81556
scalar simple_scenario_network.client[0] 	hdistance[0] 	2.8681206594803
scalar simple_scenario_network.client[0] 	downloads[0] 	179414
scalar simple_scenario_network.client[0] 	avg_time[0] 	0.001998277043
