version 2
run General-1884-20140422-20:18:55-32700
attr D lce
attr F nrr
attr R lru
attr a 0
attr configname General
attr csize 10
attr ctlg 10^3
attr datetime 20140422-20:18:55
attr experiment General
attr inifile omnetpp.ini
attr iterationvars "$net=simple_scenario, $rep=16, $priceratiovalue=8, $a=0, $ctlg=10^3, $F=nrr, $ttl=1000, $D=lce, $R=lru, $csize=10"
attr iterationvars2 "$net=simple_scenario, $rep=16, $priceratiovalue=8, $a=0, $ctlg=10^3, $F=nrr, $ttl=1000, $D=lce, $R=lru, $csize=10, $repetition=0"
attr measurement "$net=simple_scenario, $rep=16, $priceratiovalue=8, $a=0, $ctlg=10^3, $F=nrr, $ttl=1000, $D=lce, $R=lru, $csize=10"
attr net simple_scenario
attr network networks.${net=simple_scenario}_network
attr priceratiovalue 8
attr processid 32700
attr rep 16
attr repetition 0
attr replication #0
attr resultdir results
attr runnumber 1884
attr seedset 16
attr ttl 1000

scalar . 	a 	0
scalar . 	csize 	10
scalar . 	priceratiovalue 	8
scalar . 	rep 	16
scalar . 	ttl 	1000
scalar simple_scenario_network.content_distribution 	repo-0 	3
scalar simple_scenario_network.content_distribution 	repo-1 	4
scalar simple_scenario_network.content_distribution 	client-0 	0
scalar simple_scenario_network.content_distribution 	repo-0_card 	495
scalar simple_scenario_network.content_distribution 	repo-1_card 	505
scalar simple_scenario_network.statistics 	p_hit 	0.0067711570491575
scalar simple_scenario_network.statistics 	interests 	106510.6
scalar simple_scenario_network.statistics 	data 	70645.6
scalar simple_scenario_network.statistics 	hdistance 	2.9496556531437
scalar simple_scenario_network.statistics 	avg_time 	0.001999761451
scalar simple_scenario_network.statistics 	downloads 	179325
scalar simple_scenario_network.statistics 	total_cost 	88145
scalar simple_scenario_network.node[0].core_layer 	interests[0] 	179325
scalar simple_scenario_network.node[0].core_layer 	data[0] 	177509
scalar simple_scenario_network.node[0].core_layer 	repo_int[0] 	175719
scalar simple_scenario_network.node[0].content_store 	p_hit[0] 	0.010126864631256
scalar simple_scenario_network.node[0].content_store 	hits[0] 	1816
scalar simple_scenario_network.node[0].content_store 	misses[0] 	177509
scalar simple_scenario_network.node[1].core_layer 	interests[1] 	88385
scalar simple_scenario_network.node[1].core_layer 	data[1] 	87491
scalar simple_scenario_network.node[1].content_store 	p_hit[1] 	0.010114838490694
scalar simple_scenario_network.node[1].content_store 	hits[1] 	894
scalar simple_scenario_network.node[1].content_store 	misses[1] 	87491
scalar simple_scenario_network.node[2].core_layer 	interests[2] 	89124
scalar simple_scenario_network.node[2].core_layer 	data[2] 	88228
scalar simple_scenario_network.node[2].content_store 	p_hit[2] 	0.010053408733899
scalar simple_scenario_network.node[2].content_store 	hits[2] 	896
scalar simple_scenario_network.node[2].content_store 	misses[2] 	88228
scalar simple_scenario_network.node[3].core_layer 	interests[3] 	87491
scalar simple_scenario_network.node[3].core_layer 	repo_load[3] 	87491
scalar simple_scenario_network.node[3].core_layer 	data[3] 	0
scalar simple_scenario_network.node[3].content_store 	p_hit[3] 	0
scalar simple_scenario_network.node[3].content_store 	hits[3] 	0
scalar simple_scenario_network.node[3].content_store 	misses[3] 	87491
scalar simple_scenario_network.node[4].core_layer 	interests[4] 	88228
scalar simple_scenario_network.node[4].core_layer 	repo_load[4] 	88228
scalar simple_scenario_network.node[4].core_layer 	data[4] 	0
scalar simple_scenario_network.node[4].content_store 	p_hit[4] 	0
scalar simple_scenario_network.node[4].content_store 	hits[4] 	0
scalar simple_scenario_network.node[4].content_store 	misses[4] 	88228
scalar simple_scenario_network.client[0] 	hdistance[0] 	2.9496556531437
scalar simple_scenario_network.client[0] 	downloads[0] 	179325
scalar simple_scenario_network.client[0] 	avg_time[0] 	0.001999761451
