version 2
run General-2244-20140422-20:26:41-6403
attr D lce
attr F nrr
attr R lru
attr a 0
attr configname General
attr csize 10
attr ctlg 10^3
attr datetime 20140422-20:26:41
attr experiment General
attr inifile omnetpp.ini
attr iterationvars "$net=simple_scenario, $rep=19, $priceratiovalue=8, $a=0, $ctlg=10^3, $F=nrr, $ttl=1000, $D=lce, $R=lru, $csize=10"
attr iterationvars2 "$net=simple_scenario, $rep=19, $priceratiovalue=8, $a=0, $ctlg=10^3, $F=nrr, $ttl=1000, $D=lce, $R=lru, $csize=10, $repetition=0"
attr measurement "$net=simple_scenario, $rep=19, $priceratiovalue=8, $a=0, $ctlg=10^3, $F=nrr, $ttl=1000, $D=lce, $R=lru, $csize=10"
attr net simple_scenario
attr network networks.${net=simple_scenario}_network
attr priceratiovalue 8
attr processid 6403
attr rep 19
attr repetition 0
attr replication #0
attr resultdir results
attr runnumber 2244
attr seedset 19
attr ttl 1000

scalar . 	a 	0
scalar . 	csize 	10
scalar . 	priceratiovalue 	8
scalar . 	rep 	19
scalar . 	ttl 	1000
scalar simple_scenario_network.content_distribution 	repo-0 	3
scalar simple_scenario_network.content_distribution 	repo-1 	4
scalar simple_scenario_network.content_distribution 	client-0 	0
scalar simple_scenario_network.content_distribution 	repo-0_card 	476
scalar simple_scenario_network.content_distribution 	repo-1_card 	524
scalar simple_scenario_network.statistics 	p_hit 	0.0066441517252728
scalar simple_scenario_network.statistics 	interests 	106951.2
scalar simple_scenario_network.statistics 	data 	70947
scalar simple_scenario_network.statistics 	hdistance 	2.9507835197005
scalar simple_scenario_network.statistics 	avg_time 	0.001999796581
scalar simple_scenario_network.statistics 	downloads 	180021
scalar simple_scenario_network.statistics 	total_cost 	91770
scalar simple_scenario_network.node[0].core_layer 	interests[0] 	180021
scalar simple_scenario_network.node[0].core_layer 	data[0] 	178267
scalar simple_scenario_network.node[0].core_layer 	repo_int[0] 	176468
scalar simple_scenario_network.node[0].content_store 	p_hit[0] 	0.0097433077252098
scalar simple_scenario_network.node[0].content_store 	hits[0] 	1754
scalar simple_scenario_network.node[0].content_store 	misses[0] 	178267
scalar simple_scenario_network.node[1].core_layer 	interests[1] 	84642
scalar simple_scenario_network.node[1].core_layer 	data[1] 	83686
scalar simple_scenario_network.node[1].content_store 	p_hit[1] 	0.011294629143924
scalar simple_scenario_network.node[1].content_store 	hits[1] 	956
scalar simple_scenario_network.node[1].content_store 	misses[1] 	83686
scalar simple_scenario_network.node[2].core_layer 	interests[2] 	93625
scalar simple_scenario_network.node[2].core_layer 	data[2] 	92782
scalar simple_scenario_network.node[2].content_store 	p_hit[2] 	0.0090040053404539
scalar simple_scenario_network.node[2].content_store 	hits[2] 	843
scalar simple_scenario_network.node[2].content_store 	misses[2] 	92782
scalar simple_scenario_network.node[3].core_layer 	interests[3] 	83686
scalar simple_scenario_network.node[3].core_layer 	repo_load[3] 	83686
scalar simple_scenario_network.node[3].core_layer 	data[3] 	0
scalar simple_scenario_network.node[3].content_store 	p_hit[3] 	0
scalar simple_scenario_network.node[3].content_store 	hits[3] 	0
scalar simple_scenario_network.node[3].content_store 	misses[3] 	83686
scalar simple_scenario_network.node[4].core_layer 	interests[4] 	92782
scalar simple_scenario_network.node[4].core_layer 	repo_load[4] 	92782
scalar simple_scenario_network.node[4].core_layer 	data[4] 	0
scalar simple_scenario_network.node[4].content_store 	p_hit[4] 	0
scalar simple_scenario_network.node[4].content_store 	hits[4] 	0
scalar simple_scenario_network.node[4].content_store 	misses[4] 	92782
scalar simple_scenario_network.client[0] 	hdistance[0] 	2.9507835197005
scalar simple_scenario_network.client[0] 	downloads[0] 	180021
scalar simple_scenario_network.client[0] 	avg_time[0] 	0.001999796581
