version 2
run General-289-20140421-16:00:17-25716
attr D fix0.1
attr F nrr
attr R lru
attr a 0.8
attr configname General
attr csize 10
attr ctlg 10^3
attr datetime 20140421-16:00:17
attr experiment General
attr inifile omnetpp.ini
attr iterationvars "$net=simple_scenario, $rep=4, $priceratiovalue=9, $a=0.8, $ctlg=10^3, $F=nrr, $ttl=1000, $D=fix0.1, $R=lru, $csize=10"
attr iterationvars2 "$net=simple_scenario, $rep=4, $priceratiovalue=9, $a=0.8, $ctlg=10^3, $F=nrr, $ttl=1000, $D=fix0.1, $R=lru, $csize=10, $repetition=0"
attr measurement "$net=simple_scenario, $rep=4, $priceratiovalue=9, $a=0.8, $ctlg=10^3, $F=nrr, $ttl=1000, $D=fix0.1, $R=lru, $csize=10"
attr net simple_scenario
attr network networks.${net=simple_scenario}_network
attr priceratiovalue 9
attr processid 25716
attr rep 4
attr repetition 0
attr replication #0
attr resultdir results
attr runnumber 289
attr seedset 4
attr ttl 1000

scalar . 	a 	0.8
scalar . 	csize 	10
scalar . 	priceratiovalue 	9
scalar . 	rep 	4
scalar . 	ttl 	1000
scalar simple_scenario_network.content_distribution 	repo-0 	3
scalar simple_scenario_network.content_distribution 	repo-1 	4
scalar simple_scenario_network.content_distribution 	client-0 	0
scalar simple_scenario_network.content_distribution 	repo-0_card 	490
scalar simple_scenario_network.content_distribution 	repo-1_card 	510
scalar simple_scenario_network.statistics 	p_hit 	0.081262475468407
scalar simple_scenario_network.statistics 	interests 	95387.2
scalar simple_scenario_network.statistics 	data 	59490
scalar simple_scenario_network.statistics 	hdistance 	2.4412990428223
scalar simple_scenario_network.statistics 	avg_time 	0.001998204375
scalar simple_scenario_network.statistics 	downloads 	179486
scalar simple_scenario_network.statistics 	total_cost 	70114
scalar simple_scenario_network.node[0].core_layer 	interests[0] 	179486
scalar simple_scenario_network.node[0].core_layer 	data[0] 	156721
scalar simple_scenario_network.node[0].core_layer 	repo_int[0] 	140729
scalar simple_scenario_network.node[0].content_store 	p_hit[0] 	0.1268344049118
scalar simple_scenario_network.node[0].content_store 	hits[0] 	22765
scalar simple_scenario_network.node[0].content_store 	misses[0] 	156721
scalar simple_scenario_network.node[1].core_layer 	interests[1] 	78563
scalar simple_scenario_network.node[1].core_layer 	data[1] 	70676
scalar simple_scenario_network.node[1].content_store 	p_hit[1] 	0.1003907691916
scalar simple_scenario_network.node[1].content_store 	hits[1] 	7887
scalar simple_scenario_network.node[1].content_store 	misses[1] 	70676
scalar simple_scenario_network.node[2].core_layer 	interests[2] 	78158
scalar simple_scenario_network.node[2].core_layer 	data[2] 	70053
scalar simple_scenario_network.node[2].content_store 	p_hit[2] 	0.10370019703677
scalar simple_scenario_network.node[2].content_store 	hits[2] 	8105
scalar simple_scenario_network.node[2].content_store 	misses[2] 	70053
scalar simple_scenario_network.node[3].core_layer 	interests[3] 	70676
scalar simple_scenario_network.node[3].core_layer 	repo_load[3] 	70676
scalar simple_scenario_network.node[3].core_layer 	data[3] 	0
scalar simple_scenario_network.node[3].content_store 	p_hit[3] 	0
scalar simple_scenario_network.node[3].content_store 	hits[3] 	0
scalar simple_scenario_network.node[3].content_store 	misses[3] 	70676
scalar simple_scenario_network.node[4].core_layer 	interests[4] 	70053
scalar simple_scenario_network.node[4].core_layer 	repo_load[4] 	70053
scalar simple_scenario_network.node[4].core_layer 	data[4] 	0
scalar simple_scenario_network.node[4].content_store 	p_hit[4] 	0
scalar simple_scenario_network.node[4].content_store 	hits[4] 	0
scalar simple_scenario_network.node[4].content_store 	misses[4] 	70053
scalar simple_scenario_network.client[0] 	hdistance[0] 	2.4412990428223
scalar simple_scenario_network.client[0] 	downloads[0] 	179486
scalar simple_scenario_network.client[0] 	avg_time[0] 	0.001998204375
