version 2
run General-1069-20140421-20:25:56-15800
attr D fix0.1
attr F nrr
attr R lru
attr a 0.8
attr configname General
attr csize 10
attr ctlg 10^3
attr datetime 20140421-20:25:56
attr experiment General
attr inifile omnetpp.ini
attr iterationvars "$net=simple_scenario, $rep=23, $priceratiovalue=9, $a=0.8, $ctlg=10^3, $F=nrr, $ttl=1000, $D=fix0.1, $R=lru, $csize=10"
attr iterationvars2 "$net=simple_scenario, $rep=23, $priceratiovalue=9, $a=0.8, $ctlg=10^3, $F=nrr, $ttl=1000, $D=fix0.1, $R=lru, $csize=10, $repetition=0"
attr measurement "$net=simple_scenario, $rep=23, $priceratiovalue=9, $a=0.8, $ctlg=10^3, $F=nrr, $ttl=1000, $D=fix0.1, $R=lru, $csize=10"
attr net simple_scenario
attr network networks.${net=simple_scenario}_network
attr priceratiovalue 9
attr processid 15800
attr rep 23
attr repetition 0
attr replication #0
attr resultdir results
attr runnumber 1069
attr seedset 23
attr ttl 1000

scalar . 	a 	0.8
scalar . 	csize 	10
scalar . 	priceratiovalue 	9
scalar . 	rep 	23
scalar . 	ttl 	1000
scalar simple_scenario_network.content_distribution 	repo-0 	3
scalar simple_scenario_network.content_distribution 	repo-1 	4
scalar simple_scenario_network.content_distribution 	client-0 	0
scalar simple_scenario_network.content_distribution 	repo-0_card 	494
scalar simple_scenario_network.content_distribution 	repo-1_card 	506
scalar simple_scenario_network.statistics 	p_hit 	0.081071752077838
scalar simple_scenario_network.statistics 	interests 	95604.2
scalar simple_scenario_network.statistics 	data 	59627
scalar simple_scenario_network.statistics 	hdistance 	2.4419187707771
scalar simple_scenario_network.statistics 	avg_time 	0.00199823266
scalar simple_scenario_network.statistics 	downloads 	179886
scalar simple_scenario_network.statistics 	total_cost 	71940
scalar simple_scenario_network.node[0].core_layer 	interests[0] 	179886
scalar simple_scenario_network.node[0].core_layer 	data[0] 	157003
scalar simple_scenario_network.node[0].core_layer 	repo_int[0] 	141132
scalar simple_scenario_network.node[0].content_store 	p_hit[0] 	0.12720834306172
scalar simple_scenario_network.node[0].content_store 	hits[0] 	22883
scalar simple_scenario_network.node[0].content_store 	misses[0] 	157003
scalar simple_scenario_network.node[1].core_layer 	interests[1] 	77297
scalar simple_scenario_network.node[1].core_layer 	data[1] 	68847
scalar simple_scenario_network.node[1].content_store 	p_hit[1] 	0.10931860227434
scalar simple_scenario_network.node[1].content_store 	hits[1] 	8450
scalar simple_scenario_network.node[1].content_store 	misses[1] 	68847
scalar simple_scenario_network.node[2].core_layer 	interests[2] 	79706
scalar simple_scenario_network.node[2].core_layer 	data[2] 	72285
scalar simple_scenario_network.node[2].content_store 	p_hit[2] 	0.093104659624119
scalar simple_scenario_network.node[2].content_store 	hits[2] 	7421
scalar simple_scenario_network.node[2].content_store 	misses[2] 	72285
scalar simple_scenario_network.node[3].core_layer 	interests[3] 	68847
scalar simple_scenario_network.node[3].core_layer 	repo_load[3] 	68847
scalar simple_scenario_network.node[3].core_layer 	data[3] 	0
scalar simple_scenario_network.node[3].content_store 	p_hit[3] 	0
scalar simple_scenario_network.node[3].content_store 	hits[3] 	0
scalar simple_scenario_network.node[3].content_store 	misses[3] 	68847
scalar simple_scenario_network.node[4].core_layer 	interests[4] 	72285
scalar simple_scenario_network.node[4].core_layer 	repo_load[4] 	72285
scalar simple_scenario_network.node[4].core_layer 	data[4] 	0
scalar simple_scenario_network.node[4].content_store 	p_hit[4] 	0
scalar simple_scenario_network.node[4].content_store 	hits[4] 	0
scalar simple_scenario_network.node[4].content_store 	misses[4] 	72285
scalar simple_scenario_network.client[0] 	hdistance[0] 	2.4419187707771
scalar simple_scenario_network.client[0] 	downloads[0] 	179886
scalar simple_scenario_network.client[0] 	avg_time[0] 	0.00199823266
