version 2
run General-365-20140423-18:40:57-26153
attr D prob_cache
attr F nrr
attr R lru
attr a 0
attr configname General
attr csize 2
attr ctlg 10^3
attr datetime 20140423-18:40:57
attr experiment General
attr inifile omnetpp.ini
attr iterationvars "$net=simple_scenario, $rep=2, $priceratiovalue=1, $a=0, $ctlg=10^3, $F=nrr, $ttl=1000, $D=prob_cache, $R=lru, $csize=2"
attr iterationvars2 "$net=simple_scenario, $rep=2, $priceratiovalue=1, $a=0, $ctlg=10^3, $F=nrr, $ttl=1000, $D=prob_cache, $R=lru, $csize=2, $repetition=0"
attr measurement "$net=simple_scenario, $rep=2, $priceratiovalue=1, $a=0, $ctlg=10^3, $F=nrr, $ttl=1000, $D=prob_cache, $R=lru, $csize=2"
attr net simple_scenario
attr network networks.${net=simple_scenario}_network
attr priceratiovalue 1
attr processid 26153
attr rep 2
attr repetition 0
attr replication #0
attr resultdir results
attr runnumber 365
attr seedset 2
attr ttl 1000

scalar . 	a 	0
scalar . 	csize 	2
scalar . 	priceratiovalue 	1
scalar . 	rep 	2
scalar . 	ttl 	1000
scalar simple_scenario_network.content_distribution 	repo-0 	3
scalar simple_scenario_network.content_distribution 	repo-1 	4
scalar simple_scenario_network.content_distribution 	client-0 	0
scalar simple_scenario_network.content_distribution 	repo-0_card 	504
scalar simple_scenario_network.content_distribution 	repo-1_card 	496
scalar simple_scenario_network.statistics 	p_hit 	0.0018754466451166
scalar simple_scenario_network.statistics 	interests 	108027.6
scalar simple_scenario_network.statistics 	data 	71928.6
scalar simple_scenario_network.statistics 	hdistance 	2.9869248455636
scalar simple_scenario_network.statistics 	avg_time 	0.001999737866
scalar simple_scenario_network.statistics 	downloads 	180495
scalar simple_scenario_network.statistics 	total_cost 	89740
scalar simple_scenario_network.node[0].core_layer 	interests[0] 	180495
scalar simple_scenario_network.node[0].core_layer 	data[0] 	180161
scalar simple_scenario_network.node[0].core_layer 	repo_int[0] 	179482
scalar simple_scenario_network.node[0].content_store 	p_hit[0] 	0.0018504667719327
scalar simple_scenario_network.node[0].content_store 	hits[0] 	334
scalar simple_scenario_network.node[0].content_store 	misses[0] 	180161
scalar simple_scenario_network.node[1].core_layer 	interests[1] 	91313
scalar simple_scenario_network.node[1].core_layer 	data[1] 	90975
scalar simple_scenario_network.node[1].content_store 	p_hit[1] 	0.0037015539955976
scalar simple_scenario_network.node[1].content_store 	hits[1] 	338
scalar simple_scenario_network.node[1].content_store 	misses[1] 	90975
scalar simple_scenario_network.node[2].core_layer 	interests[2] 	88848
scalar simple_scenario_network.node[2].core_layer 	data[2] 	88507
scalar simple_scenario_network.node[2].content_store 	p_hit[2] 	0.0038380154871241
scalar simple_scenario_network.node[2].content_store 	hits[2] 	341
scalar simple_scenario_network.node[2].content_store 	misses[2] 	88507
scalar simple_scenario_network.node[3].core_layer 	interests[3] 	90975
scalar simple_scenario_network.node[3].core_layer 	repo_load[3] 	90975
scalar simple_scenario_network.node[3].core_layer 	data[3] 	0
scalar simple_scenario_network.node[3].content_store 	p_hit[3] 	0
scalar simple_scenario_network.node[3].content_store 	hits[3] 	0
scalar simple_scenario_network.node[3].content_store 	misses[3] 	90975
scalar simple_scenario_network.node[4].core_layer 	interests[4] 	88507
scalar simple_scenario_network.node[4].core_layer 	repo_load[4] 	88507
scalar simple_scenario_network.node[4].core_layer 	data[4] 	0
scalar simple_scenario_network.node[4].content_store 	p_hit[4] 	0
scalar simple_scenario_network.node[4].content_store 	hits[4] 	0
scalar simple_scenario_network.node[4].content_store 	misses[4] 	88507
scalar simple_scenario_network.client[0] 	hdistance[0] 	2.9869248455636
scalar simple_scenario_network.client[0] 	downloads[0] 	180495
scalar simple_scenario_network.client[0] 	avg_time[0] 	0.001999737866
