version 2
run General-4325-20140423-20:21:18-31441
attr D prob_cache
attr F nrr
attr R lru
attr a 0
attr configname General
attr csize 2
attr ctlg 10^3
attr datetime 20140423-20:21:18
attr experiment General
attr inifile omnetpp.ini
attr iterationvars "$net=simple_scenario, $rep=13, $priceratiovalue=1, $a=0, $ctlg=10^3, $F=nrr, $ttl=1000, $D=prob_cache, $R=lru, $csize=2"
attr iterationvars2 "$net=simple_scenario, $rep=13, $priceratiovalue=1, $a=0, $ctlg=10^3, $F=nrr, $ttl=1000, $D=prob_cache, $R=lru, $csize=2, $repetition=0"
attr measurement "$net=simple_scenario, $rep=13, $priceratiovalue=1, $a=0, $ctlg=10^3, $F=nrr, $ttl=1000, $D=prob_cache, $R=lru, $csize=2"
attr net simple_scenario
attr network networks.${net=simple_scenario}_network
attr priceratiovalue 1
attr processid 31441
attr rep 13
attr repetition 0
attr replication #0
attr resultdir results
attr runnumber 4325
attr seedset 13
attr ttl 1000

scalar . 	a 	0
scalar . 	csize 	2
scalar . 	priceratiovalue 	1
scalar . 	rep 	13
scalar . 	ttl 	1000
scalar simple_scenario_network.content_distribution 	repo-0 	3
scalar simple_scenario_network.content_distribution 	repo-1 	4
scalar simple_scenario_network.content_distribution 	client-0 	0
scalar simple_scenario_network.content_distribution 	repo-0_card 	509
scalar simple_scenario_network.content_distribution 	repo-1_card 	491
scalar simple_scenario_network.statistics 	p_hit 	0.0018721866174839
scalar simple_scenario_network.statistics 	interests 	107788.4
scalar simple_scenario_network.statistics 	data 	71768.6
scalar simple_scenario_network.statistics 	hdistance 	2.9868738860293
scalar simple_scenario_network.statistics 	avg_time 	0.001999710036
scalar simple_scenario_network.statistics 	downloads 	180099
scalar simple_scenario_network.statistics 	total_cost 	89544
scalar simple_scenario_network.node[0].core_layer 	interests[0] 	180099
scalar simple_scenario_network.node[0].core_layer 	data[0] 	179753
scalar simple_scenario_network.node[0].core_layer 	repo_int[0] 	179090
scalar simple_scenario_network.node[0].content_store 	p_hit[0] 	0.0019211655811526
scalar simple_scenario_network.node[0].content_store 	hits[0] 	346
scalar simple_scenario_network.node[0].content_store 	misses[0] 	179753
scalar simple_scenario_network.node[1].core_layer 	interests[1] 	91549
scalar simple_scenario_network.node[1].core_layer 	data[1] 	91205
scalar simple_scenario_network.node[1].content_store 	p_hit[1] 	0.0037575506013173
scalar simple_scenario_network.node[1].content_store 	hits[1] 	344
scalar simple_scenario_network.node[1].content_store 	misses[1] 	91205
scalar simple_scenario_network.node[2].core_layer 	interests[2] 	88204
scalar simple_scenario_network.node[2].core_layer 	data[2] 	87885
scalar simple_scenario_network.node[2].content_store 	p_hit[2] 	0.0036166160264841
scalar simple_scenario_network.node[2].content_store 	hits[2] 	319
scalar simple_scenario_network.node[2].content_store 	misses[2] 	87885
scalar simple_scenario_network.node[3].core_layer 	interests[3] 	91205
scalar simple_scenario_network.node[3].core_layer 	repo_load[3] 	91205
scalar simple_scenario_network.node[3].core_layer 	data[3] 	0
scalar simple_scenario_network.node[3].content_store 	p_hit[3] 	0
scalar simple_scenario_network.node[3].content_store 	hits[3] 	0
scalar simple_scenario_network.node[3].content_store 	misses[3] 	91205
scalar simple_scenario_network.node[4].core_layer 	interests[4] 	87885
scalar simple_scenario_network.node[4].core_layer 	repo_load[4] 	87885
scalar simple_scenario_network.node[4].core_layer 	data[4] 	0
scalar simple_scenario_network.node[4].content_store 	p_hit[4] 	0
scalar simple_scenario_network.node[4].content_store 	hits[4] 	0
scalar simple_scenario_network.node[4].content_store 	misses[4] 	87885
scalar simple_scenario_network.client[0] 	hdistance[0] 	2.9868738860293
scalar simple_scenario_network.client[0] 	downloads[0] 	180099
scalar simple_scenario_network.client[0] 	avg_time[0] 	0.001999710036
