version 2
run General-2-20140626-13:05:33-9981
attr D costprobprodcorr0.01
attr F nrr
attr R lru
attr a 1
attr configname General
attr csize 1e3
attr ctlg 1e5
attr datetime 20140626-13:05:33
attr experiment General
attr inifile omnetpp.ini
attr iterationvars "$net=geant_cost, $rep=1, $priceratiovalue=10, $weights=0.333_0.333_0.334, $lambda=100, $a=1, $ctlg=1e5, $F=nrr, $ttl=1000, $D=costprobprodcorr0.01, $xi=0.75, $R=lru, $csize=1e3, $pricebits=0, $mytime=1800"
attr iterationvars2 "$net=geant_cost, $rep=1, $priceratiovalue=10, $weights=0.333_0.333_0.334, $lambda=100, $a=1, $ctlg=1e5, $F=nrr, $ttl=1000, $D=costprobprodcorr0.01, $xi=0.75, $R=lru, $csize=1e3, $pricebits=0, $mytime=1800, $repetition=0"
attr lambda 100
attr measurement "$net=geant_cost, $rep=1, $priceratiovalue=10, $weights=0.333_0.333_0.334, $lambda=100, $a=1, $ctlg=1e5, $F=nrr, $ttl=1000, $D=costprobprodcorr0.01, $xi=0.75, $R=lru, $csize=1e3, $pricebits=0, $mytime=1800"
attr mytime 1800
attr net geant_cost
attr network networks.${net=geant_cost}_network
attr pricebits 0
attr priceratiovalue 10
attr processid 9981
attr rep 1
attr repetition 0
attr replication #0
attr resultdir results
attr runnumber 2
attr seedset 1
attr ttl 1000
attr weights 0.333_0.333_0.334
attr xi 0.75

scalar . 	a 	1
scalar . 	csize 	1e3
scalar . 	ctlg 	1e5
scalar . 	lambda 	100
scalar . 	mytime 	1800
scalar . 	pricebits 	0
scalar . 	priceratiovalue 	10
scalar . 	rep 	1
scalar . 	ttl 	1000
scalar . 	xi 	0.75
scalar geant_cost_network.content_distribution 	repo-0 	22
scalar geant_cost_network.content_distribution 	repo-1 	23
scalar geant_cost_network.content_distribution 	repo-2 	24
scalar geant_cost_network.content_distribution 	client-0 	20
scalar geant_cost_network.content_distribution 	client-1 	10
scalar geant_cost_network.content_distribution 	client-2 	12
scalar geant_cost_network.content_distribution 	client-3 	9
scalar geant_cost_network.content_distribution 	client-4 	5
scalar geant_cost_network.content_distribution 	repo-0_card 	33396
scalar geant_cost_network.content_distribution 	repo-1_card 	33039
scalar geant_cost_network.content_distribution 	repo-2_card 	33565
scalar geant_cost_network.statistics 	repo_popularity[0] 	0.28686251265602
scalar geant_cost_network.statistics 	repo_popularity[1] 	0.2886063426465
scalar geant_cost_network.statistics 	repo_popularity[2] 	0.42453114469748
scalar geant_cost_network.statistics 	stabilization_time 	36060
scalar geant_cost_network.node[7].face$o[4].channel 	price[7] 	0
scalar geant_cost_network.node[7].face$o[4].channel 	represented_price[7] 	0
scalar geant_cost_network.node[8].face$o[3].channel 	price[8] 	0
scalar geant_cost_network.node[8].face$o[3].channel 	represented_price[8] 	0
scalar geant_cost_network.node[21].face$o[5].channel 	price[21] 	0
scalar geant_cost_network.node[21].face$o[5].channel 	represented_price[21] 	0
scalar geant_cost_network.node[22].face$o[1].channel 	price[22] 	0
scalar geant_cost_network.node[22].face$o[1].channel 	represented_price[22] 	0
scalar geant_cost_network.node[23].face$o[1].channel 	price[23] 	1
scalar geant_cost_network.node[23].face$o[1].channel 	represented_price[23] 	1
scalar geant_cost_network.node[24].face$o[1].channel 	price[24] 	10
scalar geant_cost_network.node[24].face$o[1].channel 	represented_price[24] 	10
scalar geant_cost_network.statistics 	p_hit 	0.097665152140989
scalar geant_cost_network.statistics 	interests 	145260
scalar geant_cost_network.statistics 	data 	109246.72
scalar geant_cost_network.statistics 	hdistance 	3.6969508715973
scalar geant_cost_network.statistics 	avg_time 	0.008735597333
scalar geant_cost_network.statistics 	downloads 	888992
scalar geant_cost_network.statistics 	total_cost 	1481340
scalar geant_cost_network.statistics 	total_replicas 	100000
scalar geant_cost_network.statistics 	inner_hit 	0.41211281991289
scalar geant_cost_network.statistics 	interests_sent 	900331
scalar geant_cost_network.node[0].core_layer 	interests[0] 	0
scalar geant_cost_network.node[0].core_layer 	data[0] 	0
scalar geant_cost_network.node[0].core_layer 	repo_int[0] 	522627
scalar geant_cost_network.node[0].content_store 	p_hit[0] 	-nan
scalar geant_cost_network.node[0].content_store 	hits[0] 	0
scalar geant_cost_network.node[0].content_store 	misses[0] 	0
scalar geant_cost_network.node[0].content_store 	decision_yes[0] 	0
scalar geant_cost_network.node[0].content_store 	decision_no[0] 	0
scalar geant_cost_network.node[0].content_store 	decision_ratio[0] 	0
scalar geant_cost_network.node[0].content_store 	correction_factor[0] 	0.0045223903011929
scalar geant_cost_network.node[0].content_store 	xi[0] 	0.75
scalar geant_cost_network.node[1].core_layer 	interests[1] 	0
scalar geant_cost_network.node[1].core_layer 	data[1] 	0
scalar geant_cost_network.node[1].content_store 	p_hit[1] 	-nan
scalar geant_cost_network.node[1].content_store 	hits[1] 	0
scalar geant_cost_network.node[1].content_store 	misses[1] 	0
scalar geant_cost_network.node[1].content_store 	decision_yes[1] 	0
scalar geant_cost_network.node[1].content_store 	decision_no[1] 	0
scalar geant_cost_network.node[1].content_store 	decision_ratio[1] 	0
scalar geant_cost_network.node[1].content_store 	correction_factor[1] 	0.0045223903011929
scalar geant_cost_network.node[1].content_store 	xi[1] 	0.75
scalar geant_cost_network.node[2].core_layer 	interests[2] 	0
scalar geant_cost_network.node[2].core_layer 	data[2] 	0
scalar geant_cost_network.node[2].content_store 	p_hit[2] 	-nan
scalar geant_cost_network.node[2].content_store 	hits[2] 	0
scalar geant_cost_network.node[2].content_store 	misses[2] 	0
scalar geant_cost_network.node[2].content_store 	decision_yes[2] 	0
scalar geant_cost_network.node[2].content_store 	decision_no[2] 	0
scalar geant_cost_network.node[2].content_store 	decision_ratio[2] 	0
scalar geant_cost_network.node[2].content_store 	correction_factor[2] 	0.0045223903011929
scalar geant_cost_network.node[2].content_store 	xi[2] 	0.75
scalar geant_cost_network.node[3].core_layer 	interests[3] 	242579
scalar geant_cost_network.node[3].core_layer 	data[3] 	233733
scalar geant_cost_network.node[3].content_store 	p_hit[3] 	0.036417002296159
scalar geant_cost_network.node[3].content_store 	hits[3] 	8834
scalar geant_cost_network.node[3].content_store 	misses[3] 	233745
scalar geant_cost_network.node[3].content_store 	decision_yes[3] 	2045
scalar geant_cost_network.node[3].content_store 	decision_no[3] 	231688
scalar geant_cost_network.node[3].content_store 	decision_ratio[3] 	0.008749299414289
scalar geant_cost_network.node[3].content_store 	correction_factor[3] 	0.0045223903011929
scalar geant_cost_network.node[3].content_store 	xi[3] 	0.75
scalar geant_cost_network.node[4].core_layer 	interests[4] 	305237
scalar geant_cost_network.node[4].core_layer 	data[4] 	287008
scalar geant_cost_network.node[4].content_store 	p_hit[4] 	0.059501305542906
scalar geant_cost_network.node[4].content_store 	hits[4] 	18162
scalar geant_cost_network.node[4].content_store 	misses[4] 	287075
scalar geant_cost_network.node[4].content_store 	decision_yes[4] 	2141
scalar geant_cost_network.node[4].content_store 	decision_no[4] 	284867
scalar geant_cost_network.node[4].content_store 	decision_ratio[4] 	0.0074597223770766
scalar geant_cost_network.node[4].content_store 	correction_factor[4] 	0.0045223903011929
scalar geant_cost_network.node[4].content_store 	xi[4] 	0.75
scalar geant_cost_network.node[5].core_layer 	interests[5] 	203234
scalar geant_cost_network.node[5].core_layer 	data[5] 	177206
scalar geant_cost_network.node[5].content_store 	p_hit[5] 	0.11777064861194
scalar geant_cost_network.node[5].content_store 	hits[5] 	23935
scalar geant_cost_network.node[5].content_store 	misses[5] 	179299
scalar geant_cost_network.node[5].content_store 	decision_yes[5] 	767
scalar geant_cost_network.node[5].content_store 	decision_no[5] 	176439
scalar geant_cost_network.node[5].content_store 	decision_ratio[5] 	0.0043282958816293
scalar geant_cost_network.node[5].content_store 	correction_factor[5] 	0.0045223903011929
scalar geant_cost_network.node[5].content_store 	xi[5] 	0.75
scalar geant_cost_network.node[6].core_layer 	interests[6] 	98087
scalar geant_cost_network.node[6].core_layer 	data[6] 	87047
scalar geant_cost_network.node[6].content_store 	p_hit[6] 	0.11255314159878
scalar geant_cost_network.node[6].content_store 	hits[6] 	11040
scalar geant_cost_network.node[6].content_store 	misses[6] 	87047
scalar geant_cost_network.node[6].content_store 	decision_yes[6] 	103
scalar geant_cost_network.node[6].content_store 	decision_no[6] 	86944
scalar geant_cost_network.node[6].content_store 	decision_ratio[6] 	0.0011832688088044
scalar geant_cost_network.node[6].content_store 	correction_factor[6] 	0.0045223903011929
scalar geant_cost_network.node[6].content_store 	xi[6] 	0.75
scalar geant_cost_network.node[7].core_layer 	interests[7] 	352733
scalar geant_cost_network.node[7].core_layer 	data[7] 	336042
scalar geant_cost_network.node[7].content_store 	p_hit[7] 	0.047285056969436
scalar geant_cost_network.node[7].content_store 	hits[7] 	16679
scalar geant_cost_network.node[7].content_store 	misses[7] 	336054
scalar geant_cost_network.node[7].content_store 	decision_yes[7] 	221
scalar geant_cost_network.node[7].content_store 	decision_no[7] 	335821
scalar geant_cost_network.node[7].content_store 	decision_ratio[7] 	0.00065765588825206
scalar geant_cost_network.node[7].content_store 	correction_factor[7] 	0.0045223903011929
scalar geant_cost_network.node[7].content_store 	xi[7] 	0.75
scalar geant_cost_network.node[8].core_layer 	interests[8] 	290373
scalar geant_cost_network.node[8].core_layer 	data[8] 	254152
scalar geant_cost_network.node[8].content_store 	p_hit[8] 	0.12473955911879
scalar geant_cost_network.node[8].content_store 	hits[8] 	36221
scalar geant_cost_network.node[8].content_store 	misses[8] 	254152
scalar geant_cost_network.node[8].content_store 	decision_yes[8] 	606
scalar geant_cost_network.node[8].content_store 	decision_no[8] 	253546
scalar geant_cost_network.node[8].content_store 	decision_ratio[8] 	0.002384399886682
scalar geant_cost_network.node[8].content_store 	correction_factor[8] 	0.0045223903011929
scalar geant_cost_network.node[8].content_store 	xi[8] 	0.75
scalar geant_cost_network.node[9].core_layer 	interests[9] 	421790
scalar geant_cost_network.node[9].core_layer 	data[9] 	363302
scalar geant_cost_network.node[9].content_store 	p_hit[9] 	0.1212546527893
scalar geant_cost_network.node[9].content_store 	hits[9] 	51144
scalar geant_cost_network.node[9].content_store 	misses[9] 	370646
scalar geant_cost_network.node[9].content_store 	decision_yes[9] 	1699
scalar geant_cost_network.node[9].content_store 	decision_no[9] 	361603
scalar geant_cost_network.node[9].content_store 	decision_ratio[9] 	0.0046765500878057
scalar geant_cost_network.node[9].content_store 	correction_factor[9] 	0.0045223903011929
scalar geant_cost_network.node[9].content_store 	xi[9] 	0.75
scalar geant_cost_network.node[10].core_layer 	interests[10] 	195402
scalar geant_cost_network.node[10].core_layer 	data[10] 	171016
scalar geant_cost_network.node[10].content_store 	p_hit[10] 	0.10902651968762
scalar geant_cost_network.node[10].content_store 	hits[10] 	21304
scalar geant_cost_network.node[10].content_store 	misses[10] 	174098
scalar geant_cost_network.node[10].content_store 	decision_yes[10] 	798
scalar geant_cost_network.node[10].content_store 	decision_no[10] 	170218
scalar geant_cost_network.node[10].content_store 	decision_ratio[10] 	0.0046662300603452
scalar geant_cost_network.node[10].content_store 	correction_factor[10] 	0.0045223903011929
scalar geant_cost_network.node[10].content_store 	xi[10] 	0.75
scalar geant_cost_network.node[11].core_layer 	interests[11] 	0
scalar geant_cost_network.node[11].core_layer 	data[11] 	0
scalar geant_cost_network.node[11].content_store 	p_hit[11] 	-nan
scalar geant_cost_network.node[11].content_store 	hits[11] 	0
scalar geant_cost_network.node[11].content_store 	misses[11] 	0
scalar geant_cost_network.node[11].content_store 	decision_yes[11] 	0
scalar geant_cost_network.node[11].content_store 	decision_no[11] 	0
scalar geant_cost_network.node[11].content_store 	decision_ratio[11] 	0
scalar geant_cost_network.node[11].content_store 	correction_factor[11] 	0.0045223903011929
scalar geant_cost_network.node[11].content_store 	xi[11] 	0.75
scalar geant_cost_network.node[12].core_layer 	interests[12] 	326642
scalar geant_cost_network.node[12].core_layer 	data[12] 	302162
scalar geant_cost_network.node[12].content_store 	p_hit[12] 	0.045086057518629
scalar geant_cost_network.node[12].content_store 	hits[12] 	14727
scalar geant_cost_network.node[12].content_store 	misses[12] 	311915
scalar geant_cost_network.node[12].content_store 	decision_yes[12] 	2188
scalar geant_cost_network.node[12].content_store 	decision_no[12] 	299974
scalar geant_cost_network.node[12].content_store 	decision_ratio[12] 	0.0072411487877364
scalar geant_cost_network.node[12].content_store 	correction_factor[12] 	0.0045223903011929
scalar geant_cost_network.node[12].content_store 	xi[12] 	0.75
scalar geant_cost_network.node[13].core_layer 	interests[13] 	20068
scalar geant_cost_network.node[13].core_layer 	data[13] 	20067
scalar geant_cost_network.node[13].content_store 	p_hit[13] 	0
scalar geant_cost_network.node[13].content_store 	hits[13] 	0
scalar geant_cost_network.node[13].content_store 	misses[13] 	20068
scalar geant_cost_network.node[13].content_store 	decision_yes[13] 	0
scalar geant_cost_network.node[13].content_store 	decision_no[13] 	20067
scalar geant_cost_network.node[13].content_store 	decision_ratio[13] 	0
scalar geant_cost_network.node[13].content_store 	correction_factor[13] 	0.0045223903011929
scalar geant_cost_network.node[13].content_store 	xi[13] 	0.75
scalar geant_cost_network.node[14].core_layer 	interests[14] 	101556
scalar geant_cost_network.node[14].core_layer 	data[14] 	60512
scalar geant_cost_network.node[14].content_store 	p_hit[14] 	0.4041514041514
scalar geant_cost_network.node[14].content_store 	hits[14] 	41044
scalar geant_cost_network.node[14].content_store 	misses[14] 	60512
scalar geant_cost_network.node[14].content_store 	decision_yes[14] 	703
scalar geant_cost_network.node[14].content_store 	decision_no[14] 	59809
scalar geant_cost_network.node[14].content_store 	decision_ratio[14] 	0.011617530407192
scalar geant_cost_network.node[14].content_store 	correction_factor[14] 	0.0045223903011929
scalar geant_cost_network.node[14].content_store 	xi[14] 	0.75
scalar geant_cost_network.node[15].core_layer 	interests[15] 	0
scalar geant_cost_network.node[15].core_layer 	data[15] 	0
scalar geant_cost_network.node[15].content_store 	p_hit[15] 	-nan
scalar geant_cost_network.node[15].content_store 	hits[15] 	0
scalar geant_cost_network.node[15].content_store 	misses[15] 	0
scalar geant_cost_network.node[15].content_store 	decision_yes[15] 	0
scalar geant_cost_network.node[15].content_store 	decision_no[15] 	0
scalar geant_cost_network.node[15].content_store 	decision_ratio[15] 	0
scalar geant_cost_network.node[15].content_store 	correction_factor[15] 	0.0045223903011929
scalar geant_cost_network.node[15].content_store 	xi[15] 	0.75
scalar geant_cost_network.node[16].core_layer 	interests[16] 	0
scalar geant_cost_network.node[16].core_layer 	data[16] 	0
scalar geant_cost_network.node[16].content_store 	p_hit[16] 	-nan
scalar geant_cost_network.node[16].content_store 	hits[16] 	0
scalar geant_cost_network.node[16].content_store 	misses[16] 	0
scalar geant_cost_network.node[16].content_store 	decision_yes[16] 	0
scalar geant_cost_network.node[16].content_store 	decision_no[16] 	0
scalar geant_cost_network.node[16].content_store 	decision_ratio[16] 	0
scalar geant_cost_network.node[16].content_store 	correction_factor[16] 	0.0045223903011929
scalar geant_cost_network.node[16].content_store 	xi[16] 	0.75
scalar geant_cost_network.node[17].core_layer 	interests[17] 	0
scalar geant_cost_network.node[17].core_layer 	data[17] 	0
scalar geant_cost_network.node[17].content_store 	p_hit[17] 	-nan
scalar geant_cost_network.node[17].content_store 	hits[17] 	0
scalar geant_cost_network.node[17].content_store 	misses[17] 	0
scalar geant_cost_network.node[17].content_store 	decision_yes[17] 	0
scalar geant_cost_network.node[17].content_store 	decision_no[17] 	0
scalar geant_cost_network.node[17].content_store 	decision_ratio[17] 	0
scalar geant_cost_network.node[17].content_store 	correction_factor[17] 	0.0045223903011929
scalar geant_cost_network.node[17].content_store 	xi[17] 	0.75
scalar geant_cost_network.node[18].core_layer 	interests[18] 	137727
scalar geant_cost_network.node[18].core_layer 	data[18] 	132350
scalar geant_cost_network.node[18].content_store 	p_hit[18] 	0.039041001401323
scalar geant_cost_network.node[18].content_store 	hits[18] 	5377
scalar geant_cost_network.node[18].content_store 	misses[18] 	132350
scalar geant_cost_network.node[18].content_store 	decision_yes[18] 	112
scalar geant_cost_network.node[18].content_store 	decision_no[18] 	132238
scalar geant_cost_network.node[18].content_store 	decision_ratio[18] 	0.00084624102757839
scalar geant_cost_network.node[18].content_store 	correction_factor[18] 	0.0045223903011929
scalar geant_cost_network.node[18].content_store 	xi[18] 	0.75
scalar geant_cost_network.node[19].core_layer 	interests[19] 	0
scalar geant_cost_network.node[19].core_layer 	data[19] 	0
scalar geant_cost_network.node[19].content_store 	p_hit[19] 	-nan
scalar geant_cost_network.node[19].content_store 	hits[19] 	0
scalar geant_cost_network.node[19].content_store 	misses[19] 	0
scalar geant_cost_network.node[19].content_store 	decision_yes[19] 	0
scalar geant_cost_network.node[19].content_store 	decision_no[19] 	0
scalar geant_cost_network.node[19].content_store 	decision_ratio[19] 	0
scalar geant_cost_network.node[19].content_store 	correction_factor[19] 	0.0045223903011929
scalar geant_cost_network.node[19].content_store 	xi[19] 	0.75
scalar geant_cost_network.node[20].core_layer 	interests[20] 	192797
scalar geant_cost_network.node[20].core_layer 	data[20] 	171481
scalar geant_cost_network.node[20].content_store 	p_hit[20] 	0.10708672852793
scalar geant_cost_network.node[20].content_store 	hits[20] 	20646
scalar geant_cost_network.node[20].content_store 	misses[20] 	172151
scalar geant_cost_network.node[20].content_store 	decision_yes[20] 	855
scalar geant_cost_network.node[20].content_store 	decision_no[20] 	170626
scalar geant_cost_network.node[20].content_store 	decision_ratio[20] 	0.0049859751226083
scalar geant_cost_network.node[20].content_store 	correction_factor[20] 	0.0045223903011929
scalar geant_cost_network.node[20].content_store 	xi[20] 	0.75
scalar geant_cost_network.node[21].core_layer 	interests[21] 	220648
scalar geant_cost_network.node[21].core_layer 	data[21] 	135090
scalar geant_cost_network.node[21].content_store 	p_hit[21] 	0.38775787679925
scalar geant_cost_network.node[21].content_store 	hits[21] 	85558
scalar geant_cost_network.node[21].content_store 	misses[21] 	135090
scalar geant_cost_network.node[21].content_store 	decision_yes[21] 	3339
scalar geant_cost_network.node[21].content_store 	decision_no[21] 	131751
scalar geant_cost_network.node[21].content_store 	decision_ratio[21] 	0.024716855429714
scalar geant_cost_network.node[21].content_store 	correction_factor[21] 	0.0045223903011929
scalar geant_cost_network.node[21].content_store 	xi[21] 	0.75
scalar geant_cost_network.node[22].core_layer 	interests[22] 	257097
scalar geant_cost_network.node[22].core_layer 	repo_load[22] 	257097
scalar geant_cost_network.node[22].core_layer 	data[22] 	0
scalar geant_cost_network.node[22].content_store 	p_hit[22] 	0
scalar geant_cost_network.node[22].content_store 	hits[22] 	0
scalar geant_cost_network.node[22].content_store 	misses[22] 	257097
scalar geant_cost_network.node[22].content_store 	decision_yes[22] 	0
scalar geant_cost_network.node[22].content_store 	decision_no[22] 	257097
scalar geant_cost_network.node[22].content_store 	decision_ratio[22] 	0
scalar geant_cost_network.node[23].core_layer 	interests[23] 	130440
scalar geant_cost_network.node[23].core_layer 	repo_load[23] 	130440
scalar geant_cost_network.node[23].core_layer 	data[23] 	0
scalar geant_cost_network.node[23].content_store 	p_hit[23] 	0
scalar geant_cost_network.node[23].content_store 	hits[23] 	0
scalar geant_cost_network.node[23].content_store 	misses[23] 	130440
scalar geant_cost_network.node[23].content_store 	decision_yes[23] 	0
scalar geant_cost_network.node[23].content_store 	decision_no[23] 	130440
scalar geant_cost_network.node[23].content_store 	decision_ratio[23] 	0
scalar geant_cost_network.node[24].core_layer 	interests[24] 	135090
scalar geant_cost_network.node[24].core_layer 	repo_load[24] 	135090
scalar geant_cost_network.node[24].core_layer 	data[24] 	0
scalar geant_cost_network.node[24].content_store 	p_hit[24] 	0
scalar geant_cost_network.node[24].content_store 	hits[24] 	0
scalar geant_cost_network.node[24].content_store 	misses[24] 	135090
scalar geant_cost_network.node[24].content_store 	decision_yes[24] 	0
scalar geant_cost_network.node[24].content_store 	decision_no[24] 	135090
scalar geant_cost_network.node[24].content_store 	decision_ratio[24] 	0
scalar geant_cost_network.client[5] 	hdistance[5] 	3.3206309190868
scalar geant_cost_network.client[5] 	downloads[5] 	177709
scalar geant_cost_network.client[5] 	avg_time[5] 	0.00997095918
scalar geant_cost_network.client[5] 	interests_sent[5] 	179797
scalar geant_cost_network.client[9] 	hdistance[9] 	3.442855287601
scalar geant_cost_network.client[9] 	downloads[9] 	177103
scalar geant_cost_network.client[9] 	avg_time[9] 	0.008097828469
scalar geant_cost_network.client[9] 	interests_sent[9] 	179943
scalar geant_cost_network.client[10] 	hdistance[10] 	4.3846240756537
scalar geant_cost_network.client[10] 	downloads[10] 	177017
scalar geant_cost_network.client[10] 	avg_time[10] 	0.009765642831
scalar geant_cost_network.client[10] 	interests_sent[10] 	180099
scalar geant_cost_network.client[12] 	hdistance[12] 	3.6496596525914
scalar geant_cost_network.client[12] 	downloads[12] 	177025
scalar geant_cost_network.client[12] 	avg_time[12] 	0.008787392056
scalar geant_cost_network.client[12] 	interests_sent[12] 	179684
scalar geant_cost_network.client[20] 	hdistance[20] 	3.6869844230534
scalar geant_cost_network.client[20] 	downloads[20] 	180138
scalar geant_cost_network.client[20] 	avg_time[20] 	0.007056164131
scalar geant_cost_network.client[20] 	interests_sent[20] 	180808
