version 2
run General-0-20140619-16:38:28-13867
attr D lce
attr F nrr
attr R lru
attr a 1
attr configname General
attr csize 5
attr ctlg 50
attr datetime 20140619-16:38:28
attr experiment General
attr inifile omnetpp.ini
attr iterationvars "$net=abilene_cost, $rep=1, $priceratiovalue=10, $weights=0.333_0.333_0.334, $lambda=100, $a=1, $ctlg=50, $F=nrr, $ttl=1000, $D=lce, $xi=1, $R=lru, $csize=5, $pricebits=0, $mytime=1800"
attr iterationvars2 "$net=abilene_cost, $rep=1, $priceratiovalue=10, $weights=0.333_0.333_0.334, $lambda=100, $a=1, $ctlg=50, $F=nrr, $ttl=1000, $D=lce, $xi=1, $R=lru, $csize=5, $pricebits=0, $mytime=1800, $repetition=0"
attr lambda 100
attr measurement "$net=abilene_cost, $rep=1, $priceratiovalue=10, $weights=0.333_0.333_0.334, $lambda=100, $a=1, $ctlg=50, $F=nrr, $ttl=1000, $D=lce, $xi=1, $R=lru, $csize=5, $pricebits=0, $mytime=1800"
attr mytime 1800
attr net abilene_cost
attr network networks.${net=abilene_cost}_network
attr pricebits 0
attr priceratiovalue 10
attr processid 13867
attr rep 1
attr repetition 0
attr replication #0
attr resultdir results
attr runnumber 0
attr seedset 1
attr ttl 1000
attr weights 0.333_0.333_0.334
attr xi 1

scalar . 	a 	1
scalar . 	csize 	5
scalar . 	ctlg 	50
scalar . 	lambda 	100
scalar . 	mytime 	1800
scalar . 	pricebits 	0
scalar . 	priceratiovalue 	10
scalar . 	rep 	1
scalar . 	ttl 	1000
scalar . 	xi 	1
scalar abilene_cost_network.content_distribution 	repo-0 	11
scalar abilene_cost_network.content_distribution 	repo-1 	12
scalar abilene_cost_network.content_distribution 	repo-2 	13
scalar abilene_cost_network.content_distribution 	client-0 	0
scalar abilene_cost_network.content_distribution 	client-1 	11
scalar abilene_cost_network.content_distribution 	repo-0_card 	15
scalar abilene_cost_network.content_distribution 	repo-1_card 	16
scalar abilene_cost_network.content_distribution 	repo-2_card 	19
scalar abilene_cost_network.statistics 	repo_popularity[0] 	0.19928620371372
scalar abilene_cost_network.statistics 	repo_popularity[1] 	0.22046590150245
scalar abilene_cost_network.statistics 	repo_popularity[2] 	0.58024789478383
scalar abilene_cost_network.node[0].face$o[3].channel 	price[0] 	0
scalar abilene_cost_network.node[0].face$o[3].channel 	represented_price[0] 	0
scalar abilene_cost_network.node[5].face$o[3].channel 	price[5] 	0
scalar abilene_cost_network.node[5].face$o[3].channel 	represented_price[5] 	0
scalar abilene_cost_network.node[9].face$o[3].channel 	price[9] 	0
scalar abilene_cost_network.node[9].face$o[3].channel 	represented_price[9] 	0
scalar abilene_cost_network.node[11].face$o[1].channel 	price[11] 	0
scalar abilene_cost_network.node[11].face$o[1].channel 	represented_price[11] 	0
scalar abilene_cost_network.node[12].face$o[1].channel 	price[12] 	1
scalar abilene_cost_network.node[12].face$o[1].channel 	represented_price[12] 	1
scalar abilene_cost_network.node[13].face$o[1].channel 	price[13] 	10
scalar abilene_cost_network.node[13].face$o[1].channel 	represented_price[13] 	10
scalar abilene_cost_network.statistics 	p_hit 	0.037556887653749
scalar abilene_cost_network.statistics 	interests 	208729.07142857
scalar abilene_cost_network.statistics 	data 	157526.64285714
scalar abilene_cost_network.statistics 	hdistance 	3.5226382861871
scalar abilene_cost_network.statistics 	avg_time 	3.88e-10
scalar abilene_cost_network.statistics 	downloads 	716827
scalar abilene_cost_network.statistics 	total_cost 	3446158
scalar abilene_cost_network.statistics 	total_replicas 	50
scalar abilene_cost_network.statistics 	inner_hit 	0.15310249195413
scalar abilene_cost_network.statistics 	interests_sent 	716828
