version 2
run General-703-20140421-20:17:30-15395
attr D fix0.1
attr F nrr
attr R lru
attr a 0.8
attr configname General
attr csize 10
attr ctlg 10^3
attr datetime 20140421-20:17:30
attr experiment General
attr inifile omnetpp.ini
attr iterationvars "$net=simple_scenario, $rep=17, $priceratiovalue=8, $a=0.8, $ctlg=10^3, $F=nrr, $ttl=1000, $D=fix0.1, $R=lru, $csize=10"
attr iterationvars2 "$net=simple_scenario, $rep=17, $priceratiovalue=8, $a=0.8, $ctlg=10^3, $F=nrr, $ttl=1000, $D=fix0.1, $R=lru, $csize=10, $repetition=0"
attr measurement "$net=simple_scenario, $rep=17, $priceratiovalue=8, $a=0.8, $ctlg=10^3, $F=nrr, $ttl=1000, $D=fix0.1, $R=lru, $csize=10"
attr net simple_scenario
attr network networks.${net=simple_scenario}_network
attr priceratiovalue 8
attr processid 15395
attr rep 17
attr repetition 0
attr replication #0
attr resultdir results
attr runnumber 703
attr seedset 17
attr ttl 1000

scalar . 	a 	0.8
scalar . 	csize 	10
scalar . 	priceratiovalue 	8
scalar . 	rep 	17
scalar . 	ttl 	1000
scalar simple_scenario_network.content_distribution 	repo-0 	3
scalar simple_scenario_network.content_distribution 	repo-1 	4
scalar simple_scenario_network.content_distribution 	client-0 	0
scalar simple_scenario_network.content_distribution 	repo-0_card 	481
scalar simple_scenario_network.content_distribution 	repo-1_card 	519
scalar simple_scenario_network.statistics 	p_hit 	0.080547803899287
scalar simple_scenario_network.statistics 	interests 	95391.8
scalar simple_scenario_network.statistics 	data 	59530.6
scalar simple_scenario_network.statistics 	hdistance 	2.4457686859335
scalar simple_scenario_network.statistics 	avg_time 	0.001998007645
scalar simple_scenario_network.statistics 	downloads 	179306
scalar simple_scenario_network.statistics 	total_cost 	73158
scalar simple_scenario_network.node[0].core_layer 	interests[0] 	179306
scalar simple_scenario_network.node[0].core_layer 	data[0] 	156765
scalar simple_scenario_network.node[0].core_layer 	repo_int[0] 	140888
scalar simple_scenario_network.node[0].content_store 	p_hit[0] 	0.12571246918675
scalar simple_scenario_network.node[0].content_store 	hits[0] 	22541
scalar simple_scenario_network.node[0].content_store 	misses[0] 	156765
scalar simple_scenario_network.node[1].core_layer 	interests[1] 	74160
scalar simple_scenario_network.node[1].core_layer 	data[1] 	66954
scalar simple_scenario_network.node[1].content_store 	p_hit[1] 	0.097168284789644
scalar simple_scenario_network.node[1].content_store 	hits[1] 	7206
scalar simple_scenario_network.node[1].content_store 	misses[1] 	66954
scalar simple_scenario_network.node[2].core_layer 	interests[2] 	82605
scalar simple_scenario_network.node[2].core_layer 	data[2] 	73934
scalar simple_scenario_network.node[2].content_store 	p_hit[2] 	0.10496943284305
scalar simple_scenario_network.node[2].content_store 	hits[2] 	8671
scalar simple_scenario_network.node[2].content_store 	misses[2] 	73934
scalar simple_scenario_network.node[3].core_layer 	interests[3] 	66954
scalar simple_scenario_network.node[3].core_layer 	repo_load[3] 	66954
scalar simple_scenario_network.node[3].core_layer 	data[3] 	0
scalar simple_scenario_network.node[3].content_store 	p_hit[3] 	0
scalar simple_scenario_network.node[3].content_store 	hits[3] 	0
scalar simple_scenario_network.node[3].content_store 	misses[3] 	66954
scalar simple_scenario_network.node[4].core_layer 	interests[4] 	73934
scalar simple_scenario_network.node[4].core_layer 	repo_load[4] 	73934
scalar simple_scenario_network.node[4].core_layer 	data[4] 	0
scalar simple_scenario_network.node[4].content_store 	p_hit[4] 	0
scalar simple_scenario_network.node[4].content_store 	hits[4] 	0
scalar simple_scenario_network.node[4].content_store 	misses[4] 	73934
scalar simple_scenario_network.client[0] 	hdistance[0] 	2.4457686859335
scalar simple_scenario_network.client[0] 	downloads[0] 	179306
scalar simple_scenario_network.client[0] 	avg_time[0] 	0.001998007645
