version 2
run General-2237-20140425-02:56:04-13765
attr D fix0.0001
attr F nrr
attr R lru
attr a 0
attr configname General
attr csize 9
attr ctlg 10^3
attr datetime 20140425-02:56:04
attr experiment General
attr inifile omnetpp.ini
attr iterationvars "$net=one_cache_scenario, $rep=6, $priceratiovalue=4, $a=0, $ctlg=10^3, $F=nrr, $ttl=1000, $D=fix0.0001, $R=lru, $csize=9"
attr iterationvars2 "$net=one_cache_scenario, $rep=6, $priceratiovalue=4, $a=0, $ctlg=10^3, $F=nrr, $ttl=1000, $D=fix0.0001, $R=lru, $csize=9, $repetition=0"
attr measurement "$net=one_cache_scenario, $rep=6, $priceratiovalue=4, $a=0, $ctlg=10^3, $F=nrr, $ttl=1000, $D=fix0.0001, $R=lru, $csize=9"
attr net one_cache_scenario
attr network networks.${net=one_cache_scenario}_network
attr priceratiovalue 4
attr processid 13765
attr rep 6
attr repetition 0
attr replication #0
attr resultdir results
attr runnumber 2237
attr seedset 6
attr ttl 1000

scalar . 	a 	0
scalar . 	csize 	9
scalar . 	priceratiovalue 	4
scalar . 	rep 	6
scalar . 	ttl 	1000
scalar one_cache_scenario_network.content_distribution 	repo-0 	3
scalar one_cache_scenario_network.content_distribution 	repo-1 	4
scalar one_cache_scenario_network.content_distribution 	client-0 	0
scalar one_cache_scenario_network.content_distribution 	repo-0_card 	492
scalar one_cache_scenario_network.content_distribution 	repo-1_card 	508
scalar one_cache_scenario_network.statistics 	p_hit 	0.0030529254560272
scalar one_cache_scenario_network.statistics 	interests 	107241.4
scalar one_cache_scenario_network.statistics 	data 	71276
scalar one_cache_scenario_network.statistics 	hdistance 	1.98179361275
scalar one_cache_scenario_network.statistics 	avg_time 	0
scalar one_cache_scenario_network.statistics 	downloads 	179827
scalar one_cache_scenario_network.statistics 	total_cost 	90145
scalar one_cache_scenario_network.statistics 	interests_sent 	179827
scalar one_cache_scenario_network.node[0].core_layer 	interests[0] 	179827
scalar one_cache_scenario_network.node[0].core_layer 	data[0] 	178190
scalar one_cache_scenario_network.node[0].core_layer 	repo_int[0] 	178190
scalar one_cache_scenario_network.node[0].content_store 	p_hit[0] 	0.009103193624984
scalar one_cache_scenario_network.node[0].content_store 	hits[0] 	1637
scalar one_cache_scenario_network.node[0].content_store 	misses[0] 	178190
scalar one_cache_scenario_network.node[0].content_store 	decision_yes[0] 	14
scalar one_cache_scenario_network.node[0].content_store 	decision_no[0] 	178176
scalar one_cache_scenario_network.node[1].core_layer 	interests[1] 	87345
scalar one_cache_scenario_network.node[1].core_layer 	data[1] 	87345
scalar one_cache_scenario_network.node[1].content_store 	p_hit[1] 	0
scalar one_cache_scenario_network.node[1].content_store 	hits[1] 	0
scalar one_cache_scenario_network.node[1].content_store 	misses[1] 	87345
scalar one_cache_scenario_network.node[1].content_store 	decision_yes[1] 	0
scalar one_cache_scenario_network.node[1].content_store 	decision_no[1] 	87345
scalar one_cache_scenario_network.node[2].core_layer 	interests[2] 	90845
scalar one_cache_scenario_network.node[2].core_layer 	data[2] 	90845
scalar one_cache_scenario_network.node[2].content_store 	p_hit[2] 	0
scalar one_cache_scenario_network.node[2].content_store 	hits[2] 	0
scalar one_cache_scenario_network.node[2].content_store 	misses[2] 	90845
scalar one_cache_scenario_network.node[2].content_store 	decision_yes[2] 	0
scalar one_cache_scenario_network.node[2].content_store 	decision_no[2] 	90845
scalar one_cache_scenario_network.node[3].core_layer 	interests[3] 	87345
scalar one_cache_scenario_network.node[3].core_layer 	repo_load[3] 	87345
scalar one_cache_scenario_network.node[3].core_layer 	data[3] 	0
scalar one_cache_scenario_network.node[3].content_store 	p_hit[3] 	0
scalar one_cache_scenario_network.node[3].content_store 	hits[3] 	0
scalar one_cache_scenario_network.node[3].content_store 	misses[3] 	87345
scalar one_cache_scenario_network.node[3].content_store 	decision_yes[3] 	0
scalar one_cache_scenario_network.node[3].content_store 	decision_no[3] 	87345
scalar one_cache_scenario_network.node[4].core_layer 	interests[4] 	90845
scalar one_cache_scenario_network.node[4].core_layer 	repo_load[4] 	90845
scalar one_cache_scenario_network.node[4].core_layer 	data[4] 	0
scalar one_cache_scenario_network.node[4].content_store 	p_hit[4] 	0
scalar one_cache_scenario_network.node[4].content_store 	hits[4] 	0
scalar one_cache_scenario_network.node[4].content_store 	misses[4] 	90845
scalar one_cache_scenario_network.node[4].content_store 	decision_yes[4] 	0
scalar one_cache_scenario_network.node[4].content_store 	decision_no[4] 	90845
scalar one_cache_scenario_network.client[0] 	hdistance[0] 	1.98179361275
scalar one_cache_scenario_network.client[0] 	downloads[0] 	179827
scalar one_cache_scenario_network.client[0] 	avg_time[0] 	0
scalar one_cache_scenario_network.client[0] 	interests_sent[0] 	179827
