version 2
run General-9-20140708-17:22:35-17215
attr D costprobtailcons
attr F spr
attr R lru
attr a 1
attr configname General
attr csize 1e3
attr ctlg 1e5
attr datetime 20140708-17:22:35
attr experiment General
attr inifile omnetpp.ini
attr iterationvars "$net=abilene_cost, $rep=5, $priceratiovalue=10, $weights=0.333_0.333_0.334, $lambda=100, $a=1, $ctlg=1e5, $F=spr, $ttl=1000, $D=costprobtailcons, $xi=1, $R=lru, $csize=1e3, $pricebits=0, $window=60, $variance=0.05, $mytime=1800"
attr iterationvars2 "$net=abilene_cost, $rep=5, $priceratiovalue=10, $weights=0.333_0.333_0.334, $lambda=100, $a=1, $ctlg=1e5, $F=spr, $ttl=1000, $D=costprobtailcons, $xi=1, $R=lru, $csize=1e3, $pricebits=0, $window=60, $variance=0.05, $mytime=1800, $repetition=0"
attr lambda 100
attr measurement "$net=abilene_cost, $rep=5, $priceratiovalue=10, $weights=0.333_0.333_0.334, $lambda=100, $a=1, $ctlg=1e5, $F=spr, $ttl=1000, $D=costprobtailcons, $xi=1, $R=lru, $csize=1e3, $pricebits=0, $window=60, $variance=0.05, $mytime=1800"
attr mytime 1800
attr net abilene_cost
attr network "networks.${net=abilene_cost, geant_cost}_network"
attr pricebits 0
attr priceratiovalue 10
attr processid 17215
attr rep 5
attr repetition 0
attr replication #0
attr resultdir results
attr runnumber 9
attr seedset 5
attr ttl 1000
attr variance 0.05
attr weights 0.333_0.333_0.334
attr window 60
attr xi 1

scalar . 	a 	1
scalar . 	csize 	1e3
scalar . 	ctlg 	1e5
scalar . 	lambda 	100
scalar . 	mytime 	1800
scalar . 	pricebits 	0
scalar . 	priceratiovalue 	10
scalar . 	rep 	5
scalar . 	ttl 	1000
scalar . 	variance 	0.05
scalar . 	window 	60
scalar . 	xi 	1
scalar abilene_cost_network.content_distribution 	repo-0 	11
scalar abilene_cost_network.content_distribution 	repo-1 	12
scalar abilene_cost_network.content_distribution 	repo-2 	13
scalar abilene_cost_network.content_distribution 	client-0 	5
scalar abilene_cost_network.content_distribution 	client-1 	0
scalar abilene_cost_network.content_distribution 	client-2 	9
scalar abilene_cost_network.content_distribution 	repo-0_card 	33102
scalar abilene_cost_network.content_distribution 	repo-1_card 	33495
scalar abilene_cost_network.content_distribution 	repo-2_card 	33403
scalar abilene_cost_network.statistics 	repo_popularity[0] 	0.44346789261525
scalar abilene_cost_network.statistics 	repo_popularity[1] 	0.29134602320581
scalar abilene_cost_network.statistics 	repo_popularity[2] 	0.26518608417894
scalar abilene_cost_network.statistics 	stabilization_time 	64.7
scalar abilene_cost_network.node[1].face$o[4].channel 	price[1] 	0
scalar abilene_cost_network.node[1].face$o[4].channel 	represented_price[1] 	0
scalar abilene_cost_network.node[7].face$o[4].channel 	price[7] 	0
scalar abilene_cost_network.node[7].face$o[4].channel 	represented_price[7] 	0
scalar abilene_cost_network.node[10].face$o[4].channel 	price[10] 	0
scalar abilene_cost_network.node[10].face$o[4].channel 	represented_price[10] 	0
scalar abilene_cost_network.node[11].face$o[1].channel 	price[11] 	0
scalar abilene_cost_network.node[11].face$o[1].channel 	represented_price[11] 	0
scalar abilene_cost_network.node[12].face$o[1].channel 	price[12] 	1
scalar abilene_cost_network.node[12].face$o[1].channel 	represented_price[12] 	1
scalar abilene_cost_network.node[13].face$o[1].channel 	price[13] 	10
scalar abilene_cost_network.node[13].face$o[1].channel 	represented_price[13] 	10
scalar abilene_cost_network.statistics 	p_hit 	0.063495749012607
scalar abilene_cost_network.statistics 	interests 	150124.78571429
scalar abilene_cost_network.statistics 	data 	111545.57142857
scalar abilene_cost_network.statistics 	hdistance 	3.6868911744522
scalar abilene_cost_network.statistics 	avg_time 	0.013849131426
scalar abilene_cost_network.statistics 	downloads 	532991
scalar abilene_cost_network.statistics 	total_cost 	890408
scalar abilene_cost_network.statistics 	total_replicas 	100000
scalar abilene_cost_network.statistics 	inner_hit 	0.25038133852166
scalar abilene_cost_network.statistics 	interests_sent 	540105
scalar abilene_cost_network.node[0].core_layer 	interests[0] 	179974
scalar abilene_cost_network.node[0].core_layer 	data[0] 	166677
scalar abilene_cost_network.node[0].core_layer 	repo_int[0] 	399540
scalar abilene_cost_network.node[0].content_store 	p_hit[0] 	0.063336926444931
scalar abilene_cost_network.node[0].content_store 	hits[0] 	11399
scalar abilene_cost_network.node[0].content_store 	misses[0] 	168575
scalar abilene_cost_network.node[0].content_store 	decision_yes[0] 	207
scalar abilene_cost_network.node[0].content_store 	decision_no[0] 	166470
scalar abilene_cost_network.node[0].content_store 	decision_ratio[0] 	0.001241923000774
scalar abilene_cost_network.node[0].content_store 	correction_factor[0] 	0
scalar abilene_cost_network.node[0].content_store 	xi[0] 	1
scalar abilene_cost_network.node[1].core_layer 	interests[1] 	233839
scalar abilene_cost_network.node[1].core_layer 	data[1] 	204951
scalar abilene_cost_network.node[1].content_store 	p_hit[1] 	0.12353371336689
scalar abilene_cost_network.node[1].content_store 	hits[1] 	28887
scalar abilene_cost_network.node[1].content_store 	misses[1] 	204952
scalar abilene_cost_network.node[1].content_store 	decision_yes[1] 	0
scalar abilene_cost_network.node[1].content_store 	decision_no[1] 	204951
scalar abilene_cost_network.node[1].content_store 	decision_ratio[1] 	0
scalar abilene_cost_network.node[1].content_store 	correction_factor[1] 	8.0061638322752e-317
scalar abilene_cost_network.node[1].content_store 	xi[1] 	1
scalar abilene_cost_network.node[2].core_layer 	interests[2] 	159887
scalar abilene_cost_network.node[2].core_layer 	data[2] 	158357
scalar abilene_cost_network.node[2].content_store 	p_hit[2] 	0.0095630038714842
scalar abilene_cost_network.node[2].content_store 	hits[2] 	1529
scalar abilene_cost_network.node[2].content_store 	misses[2] 	158358
scalar abilene_cost_network.node[2].content_store 	decision_yes[2] 	0
scalar abilene_cost_network.node[2].content_store 	decision_no[2] 	158357
scalar abilene_cost_network.node[2].content_store 	decision_ratio[2] 	0
scalar abilene_cost_network.node[2].content_store 	correction_factor[2] 	8.0161795310477e-317
scalar abilene_cost_network.node[2].content_store 	xi[2] 	1
scalar abilene_cost_network.node[3].core_layer 	interests[3] 	158358
scalar abilene_cost_network.node[3].core_layer 	data[3] 	158357
scalar abilene_cost_network.node[3].content_store 	p_hit[3] 	0
scalar abilene_cost_network.node[3].content_store 	hits[3] 	0
scalar abilene_cost_network.node[3].content_store 	misses[3] 	158358
scalar abilene_cost_network.node[3].content_store 	decision_yes[3] 	0
scalar abilene_cost_network.node[3].content_store 	decision_no[3] 	158357
scalar abilene_cost_network.node[3].content_store 	decision_ratio[3] 	0
scalar abilene_cost_network.node[3].content_store 	correction_factor[3] 	8.0066855655972e-317
scalar abilene_cost_network.node[3].content_store 	xi[3] 	1
scalar abilene_cost_network.node[4].core_layer 	interests[4] 	113602
scalar abilene_cost_network.node[4].core_layer 	data[4] 	111223
scalar abilene_cost_network.node[4].content_store 	p_hit[4] 	0.020941532719494
scalar abilene_cost_network.node[4].content_store 	hits[4] 	2379
scalar abilene_cost_network.node[4].content_store 	misses[4] 	111223
scalar abilene_cost_network.node[4].content_store 	decision_yes[4] 	0
scalar abilene_cost_network.node[4].content_store 	decision_no[4] 	111223
scalar abilene_cost_network.node[4].content_store 	decision_ratio[4] 	0
scalar abilene_cost_network.node[4].content_store 	correction_factor[4] 	8.0066855655972e-317
scalar abilene_cost_network.node[4].content_store 	xi[4] 	1
scalar abilene_cost_network.node[5].core_layer 	interests[5] 	180294
scalar abilene_cost_network.node[5].core_layer 	data[5] 	161334
scalar abilene_cost_network.node[5].content_store 	p_hit[5] 	0.080135778228893
scalar abilene_cost_network.node[5].content_store 	hits[5] 	14448
scalar abilene_cost_network.node[5].content_store 	misses[5] 	165846
scalar abilene_cost_network.node[5].content_store 	decision_yes[5] 	131
scalar abilene_cost_network.node[5].content_store 	decision_no[5] 	161203
scalar abilene_cost_network.node[5].content_store 	decision_ratio[5] 	0.00081198011578465
scalar abilene_cost_network.node[5].content_store 	correction_factor[5] 	8.0220332208197e-317
scalar abilene_cost_network.node[5].content_store 	xi[5] 	1
scalar abilene_cost_network.node[6].core_layer 	interests[6] 	47732
scalar abilene_cost_network.node[6].core_layer 	data[6] 	45089
scalar abilene_cost_network.node[6].content_store 	p_hit[6] 	0.055371658426213
scalar abilene_cost_network.node[6].content_store 	hits[6] 	2643
scalar abilene_cost_network.node[6].content_store 	misses[6] 	45089
scalar abilene_cost_network.node[6].content_store 	decision_yes[6] 	0
scalar abilene_cost_network.node[6].content_store 	decision_no[6] 	45089
scalar abilene_cost_network.node[6].content_store 	decision_ratio[6] 	0
scalar abilene_cost_network.node[6].content_store 	correction_factor[6] 	8.0066302302449e-317
scalar abilene_cost_network.node[6].content_store 	xi[6] 	1
scalar abilene_cost_network.node[7].core_layer 	interests[7] 	134820
scalar abilene_cost_network.node[7].core_layer 	data[7] 	85768
scalar abilene_cost_network.node[7].content_store 	p_hit[7] 	0.36383325916036
scalar abilene_cost_network.node[7].content_store 	hits[7] 	49052
scalar abilene_cost_network.node[7].content_store 	misses[7] 	85768
scalar abilene_cost_network.node[7].content_store 	decision_yes[7] 	96
scalar abilene_cost_network.node[7].content_store 	decision_no[7] 	85672
scalar abilene_cost_network.node[7].content_store 	decision_ratio[7] 	0.0011192985728943
scalar abilene_cost_network.node[7].content_store 	correction_factor[7] 	8.0070808181139e-317
scalar abilene_cost_network.node[7].content_store 	xi[7] 	1
scalar abilene_cost_network.node[8].core_layer 	interests[8] 	44083
scalar abilene_cost_network.node[8].core_layer 	data[8] 	42597
scalar abilene_cost_network.node[8].content_store 	p_hit[8] 	0.033709139577615
scalar abilene_cost_network.node[8].content_store 	hits[8] 	1486
scalar abilene_cost_network.node[8].content_store 	misses[8] 	42597
scalar abilene_cost_network.node[8].content_store 	decision_yes[8] 	0
scalar abilene_cost_network.node[8].content_store 	decision_no[8] 	42597
scalar abilene_cost_network.node[8].content_store 	decision_ratio[8] 	0
scalar abilene_cost_network.node[8].content_store 	correction_factor[8] 	8.0070808181139e-317
scalar abilene_cost_network.node[8].content_store 	xi[8] 	1
scalar abilene_cost_network.node[9].core_layer 	interests[9] 	179837
scalar abilene_cost_network.node[9].core_layer 	data[9] 	159535
scalar abilene_cost_network.node[9].content_store 	p_hit[9] 	0.10897646201838
scalar abilene_cost_network.node[9].content_store 	hits[9] 	19598
scalar abilene_cost_network.node[9].content_store 	misses[9] 	160239
scalar abilene_cost_network.node[9].content_store 	decision_yes[9] 	124
scalar abilene_cost_network.node[9].content_store 	decision_no[9] 	159411
scalar abilene_cost_network.node[9].content_store 	decision_ratio[9] 	0.00077725890870342
scalar abilene_cost_network.node[9].content_store 	correction_factor[9] 	8.0293691075291e-317
scalar abilene_cost_network.node[9].content_store 	xi[9] 	1
scalar abilene_cost_network.node[10].core_layer 	interests[10] 	269781
scalar abilene_cost_network.node[10].core_layer 	data[10] 	267750
scalar abilene_cost_network.node[10].content_store 	p_hit[10] 	0.0075283285331436
scalar abilene_cost_network.node[10].content_store 	hits[10] 	2031
scalar abilene_cost_network.node[10].content_store 	misses[10] 	267750
scalar abilene_cost_network.node[10].content_store 	decision_yes[10] 	0
scalar abilene_cost_network.node[10].content_store 	decision_no[10] 	267750
scalar abilene_cost_network.node[10].content_store 	decision_ratio[10] 	0
scalar abilene_cost_network.node[10].content_store 	correction_factor[10] 	8.0066302302449e-317
scalar abilene_cost_network.node[10].content_store 	xi[10] 	1
scalar abilene_cost_network.node[11].core_layer 	interests[11] 	233308
scalar abilene_cost_network.node[11].core_layer 	repo_load[11] 	233308
scalar abilene_cost_network.node[11].core_layer 	data[11] 	0
scalar abilene_cost_network.node[11].content_store 	p_hit[11] 	0
scalar abilene_cost_network.node[11].content_store 	hits[11] 	0
scalar abilene_cost_network.node[11].content_store 	misses[11] 	233308
scalar abilene_cost_network.node[11].content_store 	decision_yes[11] 	0
scalar abilene_cost_network.node[11].content_store 	decision_no[11] 	233308
scalar abilene_cost_network.node[11].content_store 	decision_ratio[11] 	0
scalar abilene_cost_network.node[12].core_layer 	interests[12] 	85768
scalar abilene_cost_network.node[12].core_layer 	repo_load[12] 	85768
scalar abilene_cost_network.node[12].core_layer 	data[12] 	0
scalar abilene_cost_network.node[12].content_store 	p_hit[12] 	0
scalar abilene_cost_network.node[12].content_store 	hits[12] 	0
scalar abilene_cost_network.node[12].content_store 	misses[12] 	85768
scalar abilene_cost_network.node[12].content_store 	decision_yes[12] 	0
scalar abilene_cost_network.node[12].content_store 	decision_no[12] 	85768
scalar abilene_cost_network.node[12].content_store 	decision_ratio[12] 	0
scalar abilene_cost_network.node[13].core_layer 	interests[13] 	80464
scalar abilene_cost_network.node[13].core_layer 	repo_load[13] 	80464
scalar abilene_cost_network.node[13].core_layer 	data[13] 	0
scalar abilene_cost_network.node[13].content_store 	p_hit[13] 	0
scalar abilene_cost_network.node[13].content_store 	hits[13] 	0
scalar abilene_cost_network.node[13].content_store 	misses[13] 	80464
scalar abilene_cost_network.node[13].content_store 	decision_yes[13] 	0
scalar abilene_cost_network.node[13].content_store 	decision_no[13] 	80464
scalar abilene_cost_network.node[13].content_store 	decision_ratio[13] 	0
scalar abilene_cost_network.client[0] 	hdistance[0] 	3.2541836069993
scalar abilene_cost_network.client[0] 	downloads[0] 	178076
scalar abilene_cost_network.client[0] 	avg_time[0] 	0.012845879358
scalar abilene_cost_network.client[0] 	interests_sent[0] 	179974
scalar abilene_cost_network.client[5] 	hdistance[5] 	4.9883492052655
scalar abilene_cost_network.client[5] 	downloads[5] 	175782
scalar abilene_cost_network.client[5] 	avg_time[5] 	0.019212695816
scalar abilene_cost_network.client[5] 	interests_sent[5] 	180294
scalar abilene_cost_network.client[9] 	hdistance[9] 	2.8181407110918
scalar abilene_cost_network.client[9] 	downloads[9] 	179133
scalar abilene_cost_network.client[9] 	avg_time[9] 	0.009488819105
scalar abilene_cost_network.client[9] 	interests_sent[9] 	179837
