version 2
run General-15-20140708-17:23:23-17221
attr D costprobtailcons
attr F spr
attr R lru
attr a 1
attr configname General
attr csize 1e3
attr ctlg 1e5
attr datetime 20140708-17:23:23
attr experiment General
attr inifile omnetpp.ini
attr iterationvars "$net=abilene_cost, $rep=8, $priceratiovalue=10, $weights=0.333_0.333_0.334, $lambda=100, $a=1, $ctlg=1e5, $F=spr, $ttl=1000, $D=costprobtailcons, $xi=1, $R=lru, $csize=1e3, $pricebits=0, $window=60, $variance=0.05, $mytime=1800"
attr iterationvars2 "$net=abilene_cost, $rep=8, $priceratiovalue=10, $weights=0.333_0.333_0.334, $lambda=100, $a=1, $ctlg=1e5, $F=spr, $ttl=1000, $D=costprobtailcons, $xi=1, $R=lru, $csize=1e3, $pricebits=0, $window=60, $variance=0.05, $mytime=1800, $repetition=0"
attr lambda 100
attr measurement "$net=abilene_cost, $rep=8, $priceratiovalue=10, $weights=0.333_0.333_0.334, $lambda=100, $a=1, $ctlg=1e5, $F=spr, $ttl=1000, $D=costprobtailcons, $xi=1, $R=lru, $csize=1e3, $pricebits=0, $window=60, $variance=0.05, $mytime=1800"
attr mytime 1800
attr net abilene_cost
attr network "networks.${net=abilene_cost, geant_cost}_network"
attr pricebits 0
attr priceratiovalue 10
attr processid 17221
attr rep 8
attr repetition 0
attr replication #0
attr resultdir results
attr runnumber 15
attr seedset 8
attr ttl 1000
attr variance 0.05
attr weights 0.333_0.333_0.334
attr window 60
attr xi 1

scalar . 	a 	1
scalar . 	csize 	1e3
scalar . 	ctlg 	1e5
scalar . 	lambda 	100
scalar . 	mytime 	1800
scalar . 	pricebits 	0
scalar . 	priceratiovalue 	10
scalar . 	rep 	8
scalar . 	ttl 	1000
scalar . 	variance 	0.05
scalar . 	window 	60
scalar . 	xi 	1
scalar abilene_cost_network.content_distribution 	repo-0 	11
scalar abilene_cost_network.content_distribution 	repo-1 	12
scalar abilene_cost_network.content_distribution 	repo-2 	13
scalar abilene_cost_network.content_distribution 	client-0 	5
scalar abilene_cost_network.content_distribution 	client-1 	0
scalar abilene_cost_network.content_distribution 	client-2 	9
scalar abilene_cost_network.content_distribution 	repo-0_card 	33481
scalar abilene_cost_network.content_distribution 	repo-1_card 	33257
scalar abilene_cost_network.content_distribution 	repo-2_card 	33262
scalar abilene_cost_network.statistics 	repo_popularity[0] 	0.31048403425595
scalar abilene_cost_network.statistics 	repo_popularity[1] 	0.33358081359224
scalar abilene_cost_network.statistics 	repo_popularity[2] 	0.35593515215181
scalar abilene_cost_network.statistics 	stabilization_time 	65.3
scalar abilene_cost_network.node[1].face$o[4].channel 	price[1] 	0
scalar abilene_cost_network.node[1].face$o[4].channel 	represented_price[1] 	0
scalar abilene_cost_network.node[7].face$o[4].channel 	price[7] 	0
scalar abilene_cost_network.node[7].face$o[4].channel 	represented_price[7] 	0
scalar abilene_cost_network.node[10].face$o[4].channel 	price[10] 	0
scalar abilene_cost_network.node[10].face$o[4].channel 	represented_price[10] 	0
scalar abilene_cost_network.node[11].face$o[1].channel 	price[11] 	0
scalar abilene_cost_network.node[11].face$o[1].channel 	represented_price[11] 	0
scalar abilene_cost_network.node[12].face$o[1].channel 	price[12] 	1
scalar abilene_cost_network.node[12].face$o[1].channel 	represented_price[12] 	1
scalar abilene_cost_network.node[13].face$o[1].channel 	price[13] 	10
scalar abilene_cost_network.node[13].face$o[1].channel 	represented_price[13] 	10
scalar abilene_cost_network.statistics 	p_hit 	0.098578926962365
scalar abilene_cost_network.statistics 	interests 	143146.35714286
scalar abilene_cost_network.statistics 	data 	104530.35714286
scalar abilene_cost_network.statistics 	hdistance 	3.3701321493595
scalar abilene_cost_network.statistics 	avg_time 	0.013599969509
scalar abilene_cost_network.statistics 	downloads 	534453
scalar abilene_cost_network.statistics 	total_cost 	893862
scalar abilene_cost_network.statistics 	total_replicas 	100000
scalar abilene_cost_network.statistics 	inner_hit 	0.3696396128378
scalar abilene_cost_network.statistics 	interests_sent 	540622
scalar abilene_cost_network.node[0].core_layer 	interests[0] 	180387
scalar abilene_cost_network.node[0].core_layer 	data[0] 	149711
scalar abilene_cost_network.node[0].core_layer 	repo_int[0] 	336898
scalar abilene_cost_network.node[0].content_store 	p_hit[0] 	0.16481232017828
scalar abilene_cost_network.node[0].content_store 	hits[0] 	29730
scalar abilene_cost_network.node[0].content_store 	misses[0] 	150657
scalar abilene_cost_network.node[0].content_store 	decision_yes[0] 	136
scalar abilene_cost_network.node[0].content_store 	decision_no[0] 	149575
scalar abilene_cost_network.node[0].content_store 	decision_ratio[0] 	0.00090841688319496
scalar abilene_cost_network.node[0].content_store 	correction_factor[0] 	1.2828869034662e-316
scalar abilene_cost_network.node[0].content_store 	xi[0] 	1
scalar abilene_cost_network.node[1].core_layer 	interests[1] 	248462
scalar abilene_cost_network.node[1].core_layer 	data[1] 	185035
scalar abilene_cost_network.node[1].content_store 	p_hit[1] 	0.25527847316692
scalar abilene_cost_network.node[1].content_store 	hits[1] 	63427
scalar abilene_cost_network.node[1].content_store 	misses[1] 	185035
scalar abilene_cost_network.node[1].content_store 	decision_yes[1] 	0
scalar abilene_cost_network.node[1].content_store 	decision_no[1] 	185035
scalar abilene_cost_network.node[1].content_store 	decision_ratio[1] 	0
scalar abilene_cost_network.node[1].content_store 	correction_factor[1] 	1.2830497475031e-316
scalar abilene_cost_network.node[1].content_store 	xi[1] 	1
scalar abilene_cost_network.node[2].core_layer 	interests[2] 	151524
scalar abilene_cost_network.node[2].core_layer 	data[2] 	149758
scalar abilene_cost_network.node[2].content_store 	p_hit[2] 	0.01165491935271
scalar abilene_cost_network.node[2].content_store 	hits[2] 	1766
scalar abilene_cost_network.node[2].content_store 	misses[2] 	149758
scalar abilene_cost_network.node[2].content_store 	decision_yes[2] 	0
scalar abilene_cost_network.node[2].content_store 	decision_no[2] 	149758
scalar abilene_cost_network.node[2].content_store 	decision_ratio[2] 	0
scalar abilene_cost_network.node[2].content_store 	correction_factor[2] 	1.2825904640787e-316
scalar abilene_cost_network.node[2].content_store 	xi[2] 	1
scalar abilene_cost_network.node[3].core_layer 	interests[3] 	149758
scalar abilene_cost_network.node[3].core_layer 	data[3] 	149266
scalar abilene_cost_network.node[3].content_store 	p_hit[3] 	0.0032853002844589
scalar abilene_cost_network.node[3].content_store 	hits[3] 	492
scalar abilene_cost_network.node[3].content_store 	misses[3] 	149266
scalar abilene_cost_network.node[3].content_store 	decision_yes[3] 	0
scalar abilene_cost_network.node[3].content_store 	decision_no[3] 	149266
scalar abilene_cost_network.node[3].content_store 	decision_ratio[3] 	0
scalar abilene_cost_network.node[3].content_store 	correction_factor[3] 	1.2828039004377e-316
scalar abilene_cost_network.node[3].content_store 	xi[3] 	1
scalar abilene_cost_network.node[4].core_layer 	interests[4] 	103866
scalar abilene_cost_network.node[4].core_layer 	data[4] 	102347
scalar abilene_cost_network.node[4].content_store 	p_hit[4] 	0.014624612481467
scalar abilene_cost_network.node[4].content_store 	hits[4] 	1519
scalar abilene_cost_network.node[4].content_store 	misses[4] 	102347
scalar abilene_cost_network.node[4].content_store 	decision_yes[4] 	0
scalar abilene_cost_network.node[4].content_store 	decision_no[4] 	102347
scalar abilene_cost_network.node[4].content_store 	decision_ratio[4] 	0
scalar abilene_cost_network.node[4].content_store 	correction_factor[4] 	1.2834600196154e-316
scalar abilene_cost_network.node[4].content_store 	xi[4] 	1
scalar abilene_cost_network.node[5].core_layer 	interests[5] 	180330
scalar abilene_cost_network.node[5].core_layer 	data[5] 	154985
scalar abilene_cost_network.node[5].content_store 	p_hit[5] 	0.12510397604392
scalar abilene_cost_network.node[5].content_store 	hits[5] 	22560
scalar abilene_cost_network.node[5].content_store 	misses[5] 	157770
scalar abilene_cost_network.node[5].content_store 	decision_yes[5] 	130
scalar abilene_cost_network.node[5].content_store 	decision_no[5] 	154855
scalar abilene_cost_network.node[5].content_store 	decision_ratio[5] 	0.00083879085072749
scalar abilene_cost_network.node[5].content_store 	correction_factor[5] 	1.283261602852e-316
scalar abilene_cost_network.node[5].content_store 	xi[5] 	1
scalar abilene_cost_network.node[6].core_layer 	interests[6] 	51119
scalar abilene_cost_network.node[6].core_layer 	data[6] 	49206
scalar abilene_cost_network.node[6].content_store 	p_hit[6] 	0.037422484790391
scalar abilene_cost_network.node[6].content_store 	hits[6] 	1913
scalar abilene_cost_network.node[6].content_store 	misses[6] 	49206
scalar abilene_cost_network.node[6].content_store 	decision_yes[6] 	0
scalar abilene_cost_network.node[6].content_store 	decision_no[6] 	49206
scalar abilene_cost_network.node[6].content_store 	decision_ratio[6] 	0
scalar abilene_cost_network.node[6].content_store 	correction_factor[6] 	1.2826197127649e-316
scalar abilene_cost_network.node[6].content_store 	xi[6] 	1
scalar abilene_cost_network.node[7].core_layer 	interests[7] 	146743
scalar abilene_cost_network.node[7].core_layer 	data[7] 	89302
scalar abilene_cost_network.node[7].content_store 	p_hit[7] 	0.39143945537436
scalar abilene_cost_network.node[7].content_store 	hits[7] 	57441
scalar abilene_cost_network.node[7].content_store 	misses[7] 	89302
scalar abilene_cost_network.node[7].content_store 	decision_yes[7] 	10
scalar abilene_cost_network.node[7].content_store 	decision_no[7] 	89292
scalar abilene_cost_network.node[7].content_store 	decision_ratio[7] 	0.00011197957492553
scalar abilene_cost_network.node[7].content_store 	correction_factor[7] 	1.2828797889209e-316
scalar abilene_cost_network.node[7].content_store 	xi[7] 	1
scalar abilene_cost_network.node[8].core_layer 	interests[8] 	53564
scalar abilene_cost_network.node[8].core_layer 	data[8] 	50618
scalar abilene_cost_network.node[8].content_store 	p_hit[8] 	0.054999626614891
scalar abilene_cost_network.node[8].content_store 	hits[8] 	2946
scalar abilene_cost_network.node[8].content_store 	misses[8] 	50618
scalar abilene_cost_network.node[8].content_store 	decision_yes[8] 	0
scalar abilene_cost_network.node[8].content_store 	decision_no[8] 	50618
scalar abilene_cost_network.node[8].content_store 	decision_ratio[8] 	0
scalar abilene_cost_network.node[8].content_store 	correction_factor[8] 	1.2834521145651e-316
scalar abilene_cost_network.node[8].content_store 	xi[8] 	1
scalar abilene_cost_network.node[9].core_layer 	interests[9] 	179905
scalar abilene_cost_network.node[9].core_layer 	data[9] 	163869
scalar abilene_cost_network.node[9].content_store 	p_hit[9] 	0.075584336177427
scalar abilene_cost_network.node[9].content_store 	hits[9] 	13598
scalar abilene_cost_network.node[9].content_store 	misses[9] 	166307
scalar abilene_cost_network.node[9].content_store 	decision_yes[9] 	137
scalar abilene_cost_network.node[9].content_store 	decision_no[9] 	163732
scalar abilene_cost_network.node[9].content_store 	decision_ratio[9] 	0.00083603366103412
scalar abilene_cost_network.node[9].content_store 	correction_factor[9] 	1.2849971566527e-316
scalar abilene_cost_network.node[9].content_store 	xi[9] 	1
scalar abilene_cost_network.node[10].core_layer 	interests[10] 	221493
scalar abilene_cost_network.node[10].core_layer 	data[10] 	219328
scalar abilene_cost_network.node[10].content_store 	p_hit[10] 	0.0097745752687444
scalar abilene_cost_network.node[10].content_store 	hits[10] 	2165
scalar abilene_cost_network.node[10].content_store 	misses[10] 	219328
scalar abilene_cost_network.node[10].content_store 	decision_yes[10] 	0
scalar abilene_cost_network.node[10].content_store 	decision_no[10] 	219328
scalar abilene_cost_network.node[10].content_store 	decision_ratio[10] 	0
scalar abilene_cost_network.node[10].content_store 	correction_factor[10] 	1.2840157446538e-316
scalar abilene_cost_network.node[10].content_store 	xi[10] 	1
scalar abilene_cost_network.node[11].core_layer 	interests[11] 	167140
scalar abilene_cost_network.node[11].core_layer 	repo_load[11] 	167140
scalar abilene_cost_network.node[11].core_layer 	data[11] 	0
scalar abilene_cost_network.node[11].content_store 	p_hit[11] 	0
scalar abilene_cost_network.node[11].content_store 	hits[11] 	0
scalar abilene_cost_network.node[11].content_store 	misses[11] 	167140
scalar abilene_cost_network.node[11].content_store 	decision_yes[11] 	0
scalar abilene_cost_network.node[11].content_store 	decision_no[11] 	167140
scalar abilene_cost_network.node[11].content_store 	decision_ratio[11] 	0
scalar abilene_cost_network.node[12].core_layer 	interests[12] 	89302
scalar abilene_cost_network.node[12].core_layer 	repo_load[12] 	89302
scalar abilene_cost_network.node[12].core_layer 	data[12] 	0
scalar abilene_cost_network.node[12].content_store 	p_hit[12] 	0
scalar abilene_cost_network.node[12].content_store 	hits[12] 	0
scalar abilene_cost_network.node[12].content_store 	misses[12] 	89302
scalar abilene_cost_network.node[12].content_store 	decision_yes[12] 	0
scalar abilene_cost_network.node[12].content_store 	decision_no[12] 	89302
scalar abilene_cost_network.node[12].content_store 	decision_ratio[12] 	0
scalar abilene_cost_network.node[13].core_layer 	interests[13] 	80456
scalar abilene_cost_network.node[13].core_layer 	repo_load[13] 	80456
scalar abilene_cost_network.node[13].core_layer 	data[13] 	0
scalar abilene_cost_network.node[13].content_store 	p_hit[13] 	0
scalar abilene_cost_network.node[13].content_store 	hits[13] 	0
scalar abilene_cost_network.node[13].content_store 	misses[13] 	80456
scalar abilene_cost_network.node[13].content_store 	decision_yes[13] 	0
scalar abilene_cost_network.node[13].content_store 	decision_no[13] 	80456
scalar abilene_cost_network.node[13].content_store 	decision_ratio[13] 	0
scalar abilene_cost_network.client[0] 	hdistance[0] 	2.8936976499239
scalar abilene_cost_network.client[0] 	downloads[0] 	179441
scalar abilene_cost_network.client[0] 	avg_time[0] 	0.012207355902
scalar abilene_cost_network.client[0] 	interests_sent[0] 	180387
scalar abilene_cost_network.client[5] 	hdistance[5] 	4.4501844602777
scalar abilene_cost_network.client[5] 	downloads[5] 	177545
scalar abilene_cost_network.client[5] 	avg_time[5] 	0.017016003592
scalar abilene_cost_network.client[5] 	interests_sent[5] 	180330
scalar abilene_cost_network.client[9] 	hdistance[9] 	2.7665143378769
scalar abilene_cost_network.client[9] 	downloads[9] 	177467
scalar abilene_cost_network.client[9] 	avg_time[9] 	0.011576549034
scalar abilene_cost_network.client[9] 	interests_sent[9] 	179905
