version 2
run General-31-20140708-17:25:04-17237
attr D costprobtailcons
attr F spr
attr R lru
attr a 1
attr configname General
attr csize 1e3
attr ctlg 1e5
attr datetime 20140708-17:25:04
attr experiment General
attr inifile omnetpp.ini
attr iterationvars "$net=abilene_cost, $rep=16, $priceratiovalue=10, $weights=0.333_0.333_0.334, $lambda=100, $a=1, $ctlg=1e5, $F=spr, $ttl=1000, $D=costprobtailcons, $xi=1, $R=lru, $csize=1e3, $pricebits=0, $window=60, $variance=0.05, $mytime=1800"
attr iterationvars2 "$net=abilene_cost, $rep=16, $priceratiovalue=10, $weights=0.333_0.333_0.334, $lambda=100, $a=1, $ctlg=1e5, $F=spr, $ttl=1000, $D=costprobtailcons, $xi=1, $R=lru, $csize=1e3, $pricebits=0, $window=60, $variance=0.05, $mytime=1800, $repetition=0"
attr lambda 100
attr measurement "$net=abilene_cost, $rep=16, $priceratiovalue=10, $weights=0.333_0.333_0.334, $lambda=100, $a=1, $ctlg=1e5, $F=spr, $ttl=1000, $D=costprobtailcons, $xi=1, $R=lru, $csize=1e3, $pricebits=0, $window=60, $variance=0.05, $mytime=1800"
attr mytime 1800
attr net abilene_cost
attr network "networks.${net=abilene_cost, geant_cost}_network"
attr pricebits 0
attr priceratiovalue 10
attr processid 17237
attr rep 16
attr repetition 0
attr replication #0
attr resultdir results
attr runnumber 31
attr seedset 16
attr ttl 1000
attr variance 0.05
attr weights 0.333_0.333_0.334
attr window 60
attr xi 1

scalar . 	a 	1
scalar . 	csize 	1e3
scalar . 	ctlg 	1e5
scalar . 	lambda 	100
scalar . 	mytime 	1800
scalar . 	pricebits 	0
scalar . 	priceratiovalue 	10
scalar . 	rep 	16
scalar . 	ttl 	1000
scalar . 	variance 	0.05
scalar . 	window 	60
scalar . 	xi 	1
scalar abilene_cost_network.content_distribution 	repo-0 	11
scalar abilene_cost_network.content_distribution 	repo-1 	12
scalar abilene_cost_network.content_distribution 	repo-2 	13
scalar abilene_cost_network.content_distribution 	client-0 	5
scalar abilene_cost_network.content_distribution 	client-1 	0
scalar abilene_cost_network.content_distribution 	client-2 	9
scalar abilene_cost_network.content_distribution 	repo-0_card 	33302
scalar abilene_cost_network.content_distribution 	repo-1_card 	33208
scalar abilene_cost_network.content_distribution 	repo-2_card 	33490
scalar abilene_cost_network.statistics 	repo_popularity[0] 	0.38028263519115
scalar abilene_cost_network.statistics 	repo_popularity[1] 	0.2853641311191
scalar abilene_cost_network.statistics 	repo_popularity[2] 	0.33435323368975
scalar abilene_cost_network.statistics 	stabilization_time 	65.4
scalar abilene_cost_network.node[1].face$o[4].channel 	price[1] 	0
scalar abilene_cost_network.node[1].face$o[4].channel 	represented_price[1] 	0
scalar abilene_cost_network.node[7].face$o[4].channel 	price[7] 	0
scalar abilene_cost_network.node[7].face$o[4].channel 	represented_price[7] 	0
scalar abilene_cost_network.node[10].face$o[4].channel 	price[10] 	0
scalar abilene_cost_network.node[10].face$o[4].channel 	represented_price[10] 	0
scalar abilene_cost_network.node[11].face$o[1].channel 	price[11] 	0
scalar abilene_cost_network.node[11].face$o[1].channel 	represented_price[11] 	0
scalar abilene_cost_network.node[12].face$o[1].channel 	price[12] 	1
scalar abilene_cost_network.node[12].face$o[1].channel 	represented_price[12] 	1
scalar abilene_cost_network.node[13].face$o[1].channel 	price[13] 	10
scalar abilene_cost_network.node[13].face$o[1].channel 	represented_price[13] 	10
scalar abilene_cost_network.statistics 	p_hit 	0.081350900398375
scalar abilene_cost_network.statistics 	interests 	146236.85714286
scalar abilene_cost_network.statistics 	data 	107668.35714286
scalar abilene_cost_network.statistics 	hdistance 	3.5243866702591
scalar abilene_cost_network.statistics 	avg_time 	0.013812917154
scalar abilene_cost_network.statistics 	downloads 	532593
scalar abilene_cost_network.statistics 	total_cost 	895020
scalar abilene_cost_network.statistics 	total_replicas 	100000
scalar abilene_cost_network.statistics 	inner_hit 	0.31271909319124
scalar abilene_cost_network.statistics 	interests_sent 	539962
scalar abilene_cost_network.node[0].core_layer 	interests[0] 	180014
scalar abilene_cost_network.node[0].core_layer 	data[0] 	162898
scalar abilene_cost_network.node[0].core_layer 	repo_int[0] 	366041
scalar abilene_cost_network.node[0].content_store 	p_hit[0] 	0.084160120879487
scalar abilene_cost_network.node[0].content_store 	hits[0] 	15150
scalar abilene_cost_network.node[0].content_store 	misses[0] 	164864
scalar abilene_cost_network.node[0].content_store 	decision_yes[0] 	166
scalar abilene_cost_network.node[0].content_store 	decision_no[0] 	162732
scalar abilene_cost_network.node[0].content_store 	decision_ratio[0] 	0.0010190425910693
scalar abilene_cost_network.node[0].content_store 	correction_factor[0] 	1.8608543820317e-316
scalar abilene_cost_network.node[0].content_store 	xi[0] 	1
scalar abilene_cost_network.node[1].core_layer 	interests[1] 	247858
scalar abilene_cost_network.node[1].core_layer 	data[1] 	194555
scalar abilene_cost_network.node[1].content_store 	p_hit[1] 	0.21505862227566
scalar abilene_cost_network.node[1].content_store 	hits[1] 	53304
scalar abilene_cost_network.node[1].content_store 	misses[1] 	194554
scalar abilene_cost_network.node[1].content_store 	decision_yes[1] 	0
scalar abilene_cost_network.node[1].content_store 	decision_no[1] 	194555
scalar abilene_cost_network.node[1].content_store 	decision_ratio[1] 	0
scalar abilene_cost_network.node[1].content_store 	correction_factor[1] 	1.8610172260686e-316
scalar abilene_cost_network.node[1].content_store 	xi[1] 	1
scalar abilene_cost_network.node[2].core_layer 	interests[2] 	159254
scalar abilene_cost_network.node[2].core_layer 	data[2] 	157839
scalar abilene_cost_network.node[2].content_store 	p_hit[2] 	0.0088851771384078
scalar abilene_cost_network.node[2].content_store 	hits[2] 	1415
scalar abilene_cost_network.node[2].content_store 	misses[2] 	157839
scalar abilene_cost_network.node[2].content_store 	decision_yes[2] 	0
scalar abilene_cost_network.node[2].content_store 	decision_no[2] 	157839
scalar abilene_cost_network.node[2].content_store 	decision_ratio[2] 	0
scalar abilene_cost_network.node[2].content_store 	correction_factor[2] 	1.8605579426442e-316
scalar abilene_cost_network.node[2].content_store 	xi[2] 	1
scalar abilene_cost_network.node[3].core_layer 	interests[3] 	157839
scalar abilene_cost_network.node[3].core_layer 	data[3] 	157839
scalar abilene_cost_network.node[3].content_store 	p_hit[3] 	0
scalar abilene_cost_network.node[3].content_store 	hits[3] 	0
scalar abilene_cost_network.node[3].content_store 	misses[3] 	157839
scalar abilene_cost_network.node[3].content_store 	decision_yes[3] 	0
scalar abilene_cost_network.node[3].content_store 	decision_no[3] 	157839
scalar abilene_cost_network.node[3].content_store 	decision_ratio[3] 	0
scalar abilene_cost_network.node[3].content_store 	correction_factor[3] 	1.8607713790032e-316
scalar abilene_cost_network.node[3].content_store 	xi[3] 	1
scalar abilene_cost_network.node[4].core_layer 	interests[4] 	113133
scalar abilene_cost_network.node[4].core_layer 	data[4] 	110315
scalar abilene_cost_network.node[4].content_store 	p_hit[4] 	0.024908735735815
scalar abilene_cost_network.node[4].content_store 	hits[4] 	2818
scalar abilene_cost_network.node[4].content_store 	misses[4] 	110315
scalar abilene_cost_network.node[4].content_store 	decision_yes[4] 	0
scalar abilene_cost_network.node[4].content_store 	decision_no[4] 	110315
scalar abilene_cost_network.node[4].content_store 	decision_ratio[4] 	0
scalar abilene_cost_network.node[4].content_store 	correction_factor[4] 	1.8614274981809e-316
scalar abilene_cost_network.node[4].content_store 	xi[4] 	1
scalar abilene_cost_network.node[5].core_layer 	interests[5] 	179473
scalar abilene_cost_network.node[5].core_layer 	data[5] 	151864
scalar abilene_cost_network.node[5].content_store 	p_hit[5] 	0.13185270207775
scalar abilene_cost_network.node[5].content_store 	hits[5] 	23664
scalar abilene_cost_network.node[5].content_store 	misses[5] 	155809
scalar abilene_cost_network.node[5].content_store 	decision_yes[5] 	134
scalar abilene_cost_network.node[5].content_store 	decision_no[5] 	151730
scalar abilene_cost_network.node[5].content_store 	decision_ratio[5] 	0.00088236843491545
scalar abilene_cost_network.node[5].content_store 	correction_factor[5] 	1.8612290814175e-316
scalar abilene_cost_network.node[5].content_store 	xi[5] 	1
scalar abilene_cost_network.node[6].core_layer 	interests[6] 	38731
scalar abilene_cost_network.node[6].core_layer 	data[6] 	36901
scalar abilene_cost_network.node[6].content_store 	p_hit[6] 	0.047248973690326
scalar abilene_cost_network.node[6].content_store 	hits[6] 	1830
scalar abilene_cost_network.node[6].content_store 	misses[6] 	36901
scalar abilene_cost_network.node[6].content_store 	decision_yes[6] 	0
scalar abilene_cost_network.node[6].content_store 	decision_no[6] 	36901
scalar abilene_cost_network.node[6].content_store 	decision_ratio[6] 	0
scalar abilene_cost_network.node[6].content_store 	correction_factor[6] 	1.8605871913304e-316
scalar abilene_cost_network.node[6].content_store 	xi[6] 	1
scalar abilene_cost_network.node[7].core_layer 	interests[7] 	130308
scalar abilene_cost_network.node[7].core_layer 	data[7] 	84510
scalar abilene_cost_network.node[7].content_store 	p_hit[7] 	0.35145961874942
scalar abilene_cost_network.node[7].content_store 	hits[7] 	45798
scalar abilene_cost_network.node[7].content_store 	misses[7] 	84510
scalar abilene_cost_network.node[7].content_store 	decision_yes[7] 	95
scalar abilene_cost_network.node[7].content_store 	decision_no[7] 	84415
scalar abilene_cost_network.node[7].content_store 	decision_ratio[7] 	0.0011241273222104
scalar abilene_cost_network.node[7].content_store 	correction_factor[7] 	1.8608472674864e-316
scalar abilene_cost_network.node[7].content_store 	xi[7] 	1
scalar abilene_cost_network.node[8].core_layer 	interests[8] 	48662
scalar abilene_cost_network.node[8].core_layer 	data[8] 	45883
scalar abilene_cost_network.node[8].content_store 	p_hit[8] 	0.05712876577206
scalar abilene_cost_network.node[8].content_store 	hits[8] 	2780
scalar abilene_cost_network.node[8].content_store 	misses[8] 	45882
scalar abilene_cost_network.node[8].content_store 	decision_yes[8] 	0
scalar abilene_cost_network.node[8].content_store 	decision_no[8] 	45883
scalar abilene_cost_network.node[8].content_store 	decision_ratio[8] 	0
scalar abilene_cost_network.node[8].content_store 	correction_factor[8] 	1.8614195931305e-316
scalar abilene_cost_network.node[8].content_store 	xi[8] 	1
scalar abilene_cost_network.node[9].core_layer 	interests[9] 	180475
scalar abilene_cost_network.node[9].core_layer 	data[9] 	161970
scalar abilene_cost_network.node[9].content_store 	p_hit[9] 	0.094456295885857
scalar abilene_cost_network.node[9].content_store 	hits[9] 	17047
scalar abilene_cost_network.node[9].content_store 	misses[9] 	163428
scalar abilene_cost_network.node[9].content_store 	decision_yes[9] 	132
scalar abilene_cost_network.node[9].content_store 	decision_no[9] 	161838
scalar abilene_cost_network.node[9].content_store 	decision_ratio[9] 	0.00081496573439526
scalar abilene_cost_network.node[9].content_store 	correction_factor[9] 	1.8629646352182e-316
scalar abilene_cost_network.node[9].content_store 	xi[9] 	1
scalar abilene_cost_network.node[10].core_layer 	interests[10] 	245528
scalar abilene_cost_network.node[10].core_layer 	data[10] 	242783
scalar abilene_cost_network.node[10].content_store 	p_hit[10] 	0.01117998761852
scalar abilene_cost_network.node[10].content_store 	hits[10] 	2745
scalar abilene_cost_network.node[10].content_store 	misses[10] 	242783
scalar abilene_cost_network.node[10].content_store 	decision_yes[10] 	0
scalar abilene_cost_network.node[10].content_store 	decision_no[10] 	242783
scalar abilene_cost_network.node[10].content_store 	decision_ratio[10] 	0
scalar abilene_cost_network.node[10].content_store 	correction_factor[10] 	1.8619832232193e-316
scalar abilene_cost_network.node[10].content_store 	xi[10] 	1
scalar abilene_cost_network.node[11].core_layer 	interests[11] 	200480
scalar abilene_cost_network.node[11].core_layer 	repo_load[11] 	200480
scalar abilene_cost_network.node[11].core_layer 	data[11] 	0
scalar abilene_cost_network.node[11].content_store 	p_hit[11] 	0
scalar abilene_cost_network.node[11].content_store 	hits[11] 	0
scalar abilene_cost_network.node[11].content_store 	misses[11] 	200480
scalar abilene_cost_network.node[11].content_store 	decision_yes[11] 	0
scalar abilene_cost_network.node[11].content_store 	decision_no[11] 	200480
scalar abilene_cost_network.node[11].content_store 	decision_ratio[11] 	0
scalar abilene_cost_network.node[12].core_layer 	interests[12] 	84510
scalar abilene_cost_network.node[12].core_layer 	repo_load[12] 	84510
scalar abilene_cost_network.node[12].core_layer 	data[12] 	0
scalar abilene_cost_network.node[12].content_store 	p_hit[12] 	0
scalar abilene_cost_network.node[12].content_store 	hits[12] 	0
scalar abilene_cost_network.node[12].content_store 	misses[12] 	84510
scalar abilene_cost_network.node[12].content_store 	decision_yes[12] 	0
scalar abilene_cost_network.node[12].content_store 	decision_no[12] 	84510
scalar abilene_cost_network.node[12].content_store 	decision_ratio[12] 	0
scalar abilene_cost_network.node[13].core_layer 	interests[13] 	81051
scalar abilene_cost_network.node[13].core_layer 	repo_load[13] 	81051
scalar abilene_cost_network.node[13].core_layer 	data[13] 	0
scalar abilene_cost_network.node[13].content_store 	p_hit[13] 	0
scalar abilene_cost_network.node[13].content_store 	hits[13] 	0
scalar abilene_cost_network.node[13].content_store 	misses[13] 	81051
scalar abilene_cost_network.node[13].content_store 	decision_yes[13] 	0
scalar abilene_cost_network.node[13].content_store 	decision_no[13] 	81051
scalar abilene_cost_network.node[13].content_store 	decision_ratio[13] 	0
scalar abilene_cost_network.client[0] 	hdistance[0] 	3.1090380122214
scalar abilene_cost_network.client[0] 	downloads[0] 	178048
scalar abilene_cost_network.client[0] 	avg_time[0] 	0.012862577658
scalar abilene_cost_network.client[0] 	interests_sent[0] 	180014
scalar abilene_cost_network.client[5] 	hdistance[5] 	4.6898044756393
scalar abilene_cost_network.client[5] 	downloads[5] 	175528
scalar abilene_cost_network.client[5] 	avg_time[5] 	0.018168973074
scalar abilene_cost_network.client[5] 	interests_sent[5] 	179473
scalar abilene_cost_network.client[9] 	hdistance[9] 	2.7743175229168
scalar abilene_cost_network.client[9] 	downloads[9] 	179017
scalar abilene_cost_network.client[9] 	avg_time[9] 	0.01040720073
scalar abilene_cost_network.client[9] 	interests_sent[9] 	180475
