version 2
run General-19-20140708-17:23:30-17225
attr D costprobtailcons
attr F spr
attr R lru
attr a 1
attr configname General
attr csize 1e3
attr ctlg 1e5
attr datetime 20140708-17:23:30
attr experiment General
attr inifile omnetpp.ini
attr iterationvars "$net=abilene_cost, $rep=10, $priceratiovalue=10, $weights=0.333_0.333_0.334, $lambda=100, $a=1, $ctlg=1e5, $F=spr, $ttl=1000, $D=costprobtailcons, $xi=1, $R=lru, $csize=1e3, $pricebits=0, $window=60, $variance=0.05, $mytime=1800"
attr iterationvars2 "$net=abilene_cost, $rep=10, $priceratiovalue=10, $weights=0.333_0.333_0.334, $lambda=100, $a=1, $ctlg=1e5, $F=spr, $ttl=1000, $D=costprobtailcons, $xi=1, $R=lru, $csize=1e3, $pricebits=0, $window=60, $variance=0.05, $mytime=1800, $repetition=0"
attr lambda 100
attr measurement "$net=abilene_cost, $rep=10, $priceratiovalue=10, $weights=0.333_0.333_0.334, $lambda=100, $a=1, $ctlg=1e5, $F=spr, $ttl=1000, $D=costprobtailcons, $xi=1, $R=lru, $csize=1e3, $pricebits=0, $window=60, $variance=0.05, $mytime=1800"
attr mytime 1800
attr net abilene_cost
attr network "networks.${net=abilene_cost, geant_cost}_network"
attr pricebits 0
attr priceratiovalue 10
attr processid 17225
attr rep 10
attr repetition 0
attr replication #0
attr resultdir results
attr runnumber 19
attr seedset 10
attr ttl 1000
attr variance 0.05
attr weights 0.333_0.333_0.334
attr window 60
attr xi 1

scalar . 	a 	1
scalar . 	csize 	1e3
scalar . 	ctlg 	1e5
scalar . 	lambda 	100
scalar . 	mytime 	1800
scalar . 	pricebits 	0
scalar . 	priceratiovalue 	10
scalar . 	rep 	10
scalar . 	ttl 	1000
scalar . 	variance 	0.05
scalar . 	window 	60
scalar . 	xi 	1
scalar abilene_cost_network.content_distribution 	repo-0 	11
scalar abilene_cost_network.content_distribution 	repo-1 	12
scalar abilene_cost_network.content_distribution 	repo-2 	13
scalar abilene_cost_network.content_distribution 	client-0 	5
scalar abilene_cost_network.content_distribution 	client-1 	0
scalar abilene_cost_network.content_distribution 	client-2 	9
scalar abilene_cost_network.content_distribution 	repo-0_card 	33053
scalar abilene_cost_network.content_distribution 	repo-1_card 	33534
scalar abilene_cost_network.content_distribution 	repo-2_card 	33413
scalar abilene_cost_network.statistics 	repo_popularity[0] 	0.42335737931898
scalar abilene_cost_network.statistics 	repo_popularity[1] 	0.27871951512344
scalar abilene_cost_network.statistics 	repo_popularity[2] 	0.29792310555758
scalar abilene_cost_network.statistics 	stabilization_time 	64.9
scalar abilene_cost_network.node[1].face$o[4].channel 	price[1] 	0
scalar abilene_cost_network.node[1].face$o[4].channel 	represented_price[1] 	0
scalar abilene_cost_network.node[7].face$o[4].channel 	price[7] 	0
scalar abilene_cost_network.node[7].face$o[4].channel 	represented_price[7] 	0
scalar abilene_cost_network.node[10].face$o[4].channel 	price[10] 	0
scalar abilene_cost_network.node[10].face$o[4].channel 	represented_price[10] 	0
scalar abilene_cost_network.node[11].face$o[1].channel 	price[11] 	0
scalar abilene_cost_network.node[11].face$o[1].channel 	represented_price[11] 	0
scalar abilene_cost_network.node[12].face$o[1].channel 	price[12] 	1
scalar abilene_cost_network.node[12].face$o[1].channel 	represented_price[12] 	1
scalar abilene_cost_network.node[13].face$o[1].channel 	price[13] 	10
scalar abilene_cost_network.node[13].face$o[1].channel 	represented_price[13] 	10
scalar abilene_cost_network.statistics 	p_hit 	0.065756423770934
scalar abilene_cost_network.statistics 	interests 	149750.71428571
scalar abilene_cost_network.statistics 	data 	111160.5
scalar abilene_cost_network.statistics 	hdistance 	3.6706323001265
scalar abilene_cost_network.statistics 	avg_time 	0.013902135707
scalar abilene_cost_network.statistics 	downloads 	533105
scalar abilene_cost_network.statistics 	total_cost 	897673
scalar abilene_cost_network.statistics 	total_replicas 	100000
scalar abilene_cost_network.statistics 	inner_hit 	0.25859446075351
scalar abilene_cost_network.statistics 	interests_sent 	540265
scalar abilene_cost_network.node[0].core_layer 	interests[0] 	180381
scalar abilene_cost_network.node[0].core_layer 	data[0] 	160984
scalar abilene_cost_network.node[0].core_layer 	repo_int[0] 	395247
scalar abilene_cost_network.node[0].content_store 	p_hit[0] 	0.099223310659105
scalar abilene_cost_network.node[0].content_store 	hits[0] 	17898
scalar abilene_cost_network.node[0].content_store 	misses[0] 	162483
scalar abilene_cost_network.node[0].content_store 	decision_yes[0] 	131
scalar abilene_cost_network.node[0].content_store 	decision_no[0] 	160853
scalar abilene_cost_network.node[0].content_store 	decision_ratio[0] 	0.00081374546538786
scalar abilene_cost_network.node[0].content_store 	correction_factor[0] 	1.1171472466598e-316
scalar abilene_cost_network.node[0].content_store 	xi[0] 	1
scalar abilene_cost_network.node[1].core_layer 	interests[1] 	241471
scalar abilene_cost_network.node[1].core_layer 	data[1] 	197403
scalar abilene_cost_network.node[1].content_store 	p_hit[1] 	0.18249810536255
scalar abilene_cost_network.node[1].content_store 	hits[1] 	44068
scalar abilene_cost_network.node[1].content_store 	misses[1] 	197403
scalar abilene_cost_network.node[1].content_store 	decision_yes[1] 	0
scalar abilene_cost_network.node[1].content_store 	decision_no[1] 	197403
scalar abilene_cost_network.node[1].content_store 	decision_ratio[1] 	0
scalar abilene_cost_network.node[1].content_store 	correction_factor[1] 	1.1173100906967e-316
scalar abilene_cost_network.node[1].content_store 	xi[1] 	1
scalar abilene_cost_network.node[2].core_layer 	interests[2] 	161171
scalar abilene_cost_network.node[2].core_layer 	data[2] 	158996
scalar abilene_cost_network.node[2].content_store 	p_hit[2] 	0.013494983588859
scalar abilene_cost_network.node[2].content_store 	hits[2] 	2175
scalar abilene_cost_network.node[2].content_store 	misses[2] 	158996
scalar abilene_cost_network.node[2].content_store 	decision_yes[2] 	0
scalar abilene_cost_network.node[2].content_store 	decision_no[2] 	158996
scalar abilene_cost_network.node[2].content_store 	decision_ratio[2] 	0
scalar abilene_cost_network.node[2].content_store 	correction_factor[2] 	1.1168508072723e-316
scalar abilene_cost_network.node[2].content_store 	xi[2] 	1
scalar abilene_cost_network.node[3].core_layer 	interests[3] 	158996
scalar abilene_cost_network.node[3].core_layer 	data[3] 	158751
scalar abilene_cost_network.node[3].content_store 	p_hit[3] 	0.0015472087348109
scalar abilene_cost_network.node[3].content_store 	hits[3] 	246
scalar abilene_cost_network.node[3].content_store 	misses[3] 	158750
scalar abilene_cost_network.node[3].content_store 	decision_yes[3] 	0
scalar abilene_cost_network.node[3].content_store 	decision_no[3] 	158751
scalar abilene_cost_network.node[3].content_store 	decision_ratio[3] 	0
scalar abilene_cost_network.node[3].content_store 	correction_factor[3] 	1.1170642436313e-316
scalar abilene_cost_network.node[3].content_store 	xi[3] 	1
scalar abilene_cost_network.node[4].core_layer 	interests[4] 	118257
scalar abilene_cost_network.node[4].core_layer 	data[4] 	116283
scalar abilene_cost_network.node[4].content_store 	p_hit[4] 	0.016700914110793
scalar abilene_cost_network.node[4].content_store 	hits[4] 	1975
scalar abilene_cost_network.node[4].content_store 	misses[4] 	116282
scalar abilene_cost_network.node[4].content_store 	decision_yes[4] 	0
scalar abilene_cost_network.node[4].content_store 	decision_no[4] 	116283
scalar abilene_cost_network.node[4].content_store 	decision_ratio[4] 	0
scalar abilene_cost_network.node[4].content_store 	correction_factor[4] 	1.117720362809e-316
scalar abilene_cost_network.node[4].content_store 	xi[4] 	1
scalar abilene_cost_network.node[5].core_layer 	interests[5] 	179753
scalar abilene_cost_network.node[5].core_layer 	data[5] 	160281
scalar abilene_cost_network.node[5].content_store 	p_hit[5] 	0.082307388471959
scalar abilene_cost_network.node[5].content_store 	hits[5] 	14795
scalar abilene_cost_network.node[5].content_store 	misses[5] 	164958
scalar abilene_cost_network.node[5].content_store 	decision_yes[5] 	147
scalar abilene_cost_network.node[5].content_store 	decision_no[5] 	160134
scalar abilene_cost_network.node[5].content_store 	decision_ratio[5] 	0.00091713927414977
scalar abilene_cost_network.node[5].content_store 	correction_factor[5] 	1.1175219460456e-316
scalar abilene_cost_network.node[5].content_store 	xi[5] 	1
scalar abilene_cost_network.node[6].core_layer 	interests[6] 	42023
scalar abilene_cost_network.node[6].core_layer 	data[6] 	39965
scalar abilene_cost_network.node[6].content_store 	p_hit[6] 	0.048973181353069
scalar abilene_cost_network.node[6].content_store 	hits[6] 	2058
scalar abilene_cost_network.node[6].content_store 	misses[6] 	39965
scalar abilene_cost_network.node[6].content_store 	decision_yes[6] 	0
scalar abilene_cost_network.node[6].content_store 	decision_no[6] 	39965
scalar abilene_cost_network.node[6].content_store 	decision_ratio[6] 	0
scalar abilene_cost_network.node[6].content_store 	correction_factor[6] 	1.1168800559585e-316
scalar abilene_cost_network.node[6].content_store 	xi[6] 	1
scalar abilene_cost_network.node[7].core_layer 	interests[7] 	127248
scalar abilene_cost_network.node[7].core_layer 	data[7] 	91873
scalar abilene_cost_network.node[7].content_store 	p_hit[7] 	0.2780004400855
scalar abilene_cost_network.node[7].content_store 	hits[7] 	35375
scalar abilene_cost_network.node[7].content_store 	misses[7] 	91873
scalar abilene_cost_network.node[7].content_store 	decision_yes[7] 	0
scalar abilene_cost_network.node[7].content_store 	decision_no[7] 	91873
scalar abilene_cost_network.node[7].content_store 	decision_ratio[7] 	0
scalar abilene_cost_network.node[7].content_store 	correction_factor[7] 	1.1171401321145e-316
scalar abilene_cost_network.node[7].content_store 	xi[7] 	1
scalar abilene_cost_network.node[8].core_layer 	interests[8] 	47731
scalar abilene_cost_network.node[8].core_layer 	data[8] 	44815
scalar abilene_cost_network.node[8].content_store 	p_hit[8] 	0.061113322578618
scalar abilene_cost_network.node[8].content_store 	hits[8] 	2917
scalar abilene_cost_network.node[8].content_store 	misses[8] 	44814
scalar abilene_cost_network.node[8].content_store 	decision_yes[8] 	0
scalar abilene_cost_network.node[8].content_store 	decision_no[8] 	44815
scalar abilene_cost_network.node[8].content_store 	decision_ratio[8] 	0
scalar abilene_cost_network.node[8].content_store 	correction_factor[8] 	1.1177124577586e-316
scalar abilene_cost_network.node[8].content_store 	xi[8] 	1
scalar abilene_cost_network.node[9].core_layer 	interests[9] 	180131
scalar abilene_cost_network.node[9].core_layer 	data[9] 	164753
scalar abilene_cost_network.node[9].content_store 	p_hit[9] 	0.079908511028085
scalar abilene_cost_network.node[9].content_store 	hits[9] 	14394
scalar abilene_cost_network.node[9].content_store 	misses[9] 	165737
scalar abilene_cost_network.node[9].content_store 	decision_yes[9] 	173
scalar abilene_cost_network.node[9].content_store 	decision_no[9] 	164580
scalar abilene_cost_network.node[9].content_store 	decision_ratio[9] 	0.0010500567516221
scalar abilene_cost_network.node[9].content_store 	correction_factor[9] 	1.1192574998463e-316
scalar abilene_cost_network.node[9].content_store 	xi[9] 	1
scalar abilene_cost_network.node[10].core_layer 	interests[10] 	264101
scalar abilene_cost_network.node[10].core_layer 	data[10] 	262143
scalar abilene_cost_network.node[10].content_store 	p_hit[10] 	0.0074138303149174
scalar abilene_cost_network.node[10].content_store 	hits[10] 	1958
scalar abilene_cost_network.node[10].content_store 	misses[10] 	262143
scalar abilene_cost_network.node[10].content_store 	decision_yes[10] 	0
scalar abilene_cost_network.node[10].content_store 	decision_no[10] 	262143
scalar abilene_cost_network.node[10].content_store 	decision_ratio[10] 	0
scalar abilene_cost_network.node[10].content_store 	correction_factor[10] 	1.1182760878474e-316
scalar abilene_cost_network.node[10].content_store 	xi[10] 	1
scalar abilene_cost_network.node[11].core_layer 	interests[11] 	222794
scalar abilene_cost_network.node[11].core_layer 	repo_load[11] 	222794
scalar abilene_cost_network.node[11].core_layer 	data[11] 	0
scalar abilene_cost_network.node[11].content_store 	p_hit[11] 	0
scalar abilene_cost_network.node[11].content_store 	hits[11] 	0
scalar abilene_cost_network.node[11].content_store 	misses[11] 	222794
scalar abilene_cost_network.node[11].content_store 	decision_yes[11] 	0
scalar abilene_cost_network.node[11].content_store 	decision_no[11] 	222794
scalar abilene_cost_network.node[11].content_store 	decision_ratio[11] 	0
scalar abilene_cost_network.node[12].core_layer 	interests[12] 	91873
scalar abilene_cost_network.node[12].core_layer 	repo_load[12] 	91873
scalar abilene_cost_network.node[12].core_layer 	data[12] 	0
scalar abilene_cost_network.node[12].content_store 	p_hit[12] 	0
scalar abilene_cost_network.node[12].content_store 	hits[12] 	0
scalar abilene_cost_network.node[12].content_store 	misses[12] 	91873
scalar abilene_cost_network.node[12].content_store 	decision_yes[12] 	0
scalar abilene_cost_network.node[12].content_store 	decision_no[12] 	91873
scalar abilene_cost_network.node[12].content_store 	decision_ratio[12] 	0
scalar abilene_cost_network.node[13].core_layer 	interests[13] 	80580
scalar abilene_cost_network.node[13].core_layer 	repo_load[13] 	80580
scalar abilene_cost_network.node[13].core_layer 	data[13] 	0
scalar abilene_cost_network.node[13].content_store 	p_hit[13] 	0
scalar abilene_cost_network.node[13].content_store 	hits[13] 	0
scalar abilene_cost_network.node[13].content_store 	misses[13] 	80580
scalar abilene_cost_network.node[13].content_store 	decision_yes[13] 	0
scalar abilene_cost_network.node[13].content_store 	decision_no[13] 	80580
scalar abilene_cost_network.node[13].content_store 	decision_ratio[13] 	0
scalar abilene_cost_network.client[0] 	hdistance[0] 	3.1226003734305
scalar abilene_cost_network.client[0] 	downloads[0] 	178882
scalar abilene_cost_network.client[0] 	avg_time[0] 	0.012146926904
scalar abilene_cost_network.client[0] 	interests_sent[0] 	180381
scalar abilene_cost_network.client[5] 	hdistance[5] 	5.0169012314653
scalar abilene_cost_network.client[5] 	downloads[5] 	175076
scalar abilene_cost_network.client[5] 	avg_time[5] 	0.019381816478
scalar abilene_cost_network.client[5] 	interests_sent[5] 	179753
scalar abilene_cost_network.client[9] 	hdistance[9] 	2.8723952954836
scalar abilene_cost_network.client[9] 	downloads[9] 	179147
scalar abilene_cost_network.client[9] 	avg_time[9] 	0.010177663741
scalar abilene_cost_network.client[9] 	interests_sent[9] 	180131
