version 2
run General-213-20140418-15:24:12-1801
attr D fix0.01
attr F nrr
attr R lru
attr a 1.2
attr configname General
attr csize 10
attr ctlg 10^8
attr datetime 20140418-15:24:12
attr experiment General
attr inifile omnetpp.ini
attr iterationvars "$net=simple_scenario, $rep=1, $priceratiovalue=9, $a=1.2, $ctlg=10^8, $F=nrr, $ttl=1000, $D=fix0.01, $R=lru, $csize=10"
attr iterationvars2 "$net=simple_scenario, $rep=1, $priceratiovalue=9, $a=1.2, $ctlg=10^8, $F=nrr, $ttl=1000, $D=fix0.01, $R=lru, $csize=10, $repetition=0"
attr measurement "$net=simple_scenario, $rep=1, $priceratiovalue=9, $a=1.2, $ctlg=10^8, $F=nrr, $ttl=1000, $D=fix0.01, $R=lru, $csize=10"
attr net simple_scenario
attr network networks.${net=simple_scenario}_network
attr priceratiovalue 9
attr processid 1801
attr rep 1
attr repetition 0
attr replication #0
attr resultdir results
attr runnumber 213
attr seedset 1
attr ttl 1000

scalar . 	a 	1.2
scalar . 	csize 	10
scalar . 	priceratiovalue 	9
scalar . 	rep 	1
scalar . 	ttl 	1000
scalar simple_scenario_network.content_distribution 	repo-0 	3
scalar simple_scenario_network.content_distribution 	repo-1 	4
scalar simple_scenario_network.content_distribution 	client-0 	0
scalar simple_scenario_network.content_distribution 	repo-0_card 	50003719
scalar simple_scenario_network.content_distribution 	repo-1_card 	49996281
scalar simple_scenario_network.statistics 	p_hit 	0.23405794018803
scalar simple_scenario_network.statistics 	interests 	75222.4
scalar simple_scenario_network.statistics 	data 	39418
scalar simple_scenario_network.statistics 	hdistance 	1.6091876976014
scalar simple_scenario_network.statistics 	avg_time 	0.001990916262
scalar simple_scenario_network.statistics 	downloads 	179022
scalar simple_scenario_network.statistics 	total_cost 	46109
scalar simple_scenario_network.node[0].core_layer 	interests[0] 	179022
scalar simple_scenario_network.node[0].core_layer 	data[0] 	106100
scalar simple_scenario_network.node[0].core_layer 	repo_int[0] 	90990
scalar simple_scenario_network.node[0].content_store 	p_hit[0] 	0.40733541129023
scalar simple_scenario_network.node[0].content_store 	hits[0] 	72922
scalar simple_scenario_network.node[0].content_store 	misses[0] 	106100
scalar simple_scenario_network.node[1].core_layer 	interests[1] 	51962
scalar simple_scenario_network.node[1].core_layer 	data[1] 	44726
scalar simple_scenario_network.node[1].content_store 	p_hit[1] 	0.13925560986875
scalar simple_scenario_network.node[1].content_store 	hits[1] 	7236
scalar simple_scenario_network.node[1].content_store 	misses[1] 	44726
scalar simple_scenario_network.node[2].core_layer 	interests[2] 	54138
scalar simple_scenario_network.node[2].core_layer 	data[2] 	46264
scalar simple_scenario_network.node[2].content_store 	p_hit[2] 	0.14544312682404
scalar simple_scenario_network.node[2].content_store 	hits[2] 	7874
scalar simple_scenario_network.node[2].content_store 	misses[2] 	46264
scalar simple_scenario_network.node[3].core_layer 	interests[3] 	44726
scalar simple_scenario_network.node[3].core_layer 	repo_load[3] 	44726
scalar simple_scenario_network.node[3].core_layer 	data[3] 	0
scalar simple_scenario_network.node[3].content_store 	p_hit[3] 	0
scalar simple_scenario_network.node[3].content_store 	hits[3] 	0
scalar simple_scenario_network.node[3].content_store 	misses[3] 	44726
scalar simple_scenario_network.node[4].core_layer 	interests[4] 	46264
scalar simple_scenario_network.node[4].core_layer 	repo_load[4] 	46264
scalar simple_scenario_network.node[4].core_layer 	data[4] 	0
scalar simple_scenario_network.node[4].content_store 	p_hit[4] 	0
scalar simple_scenario_network.node[4].content_store 	hits[4] 	0
scalar simple_scenario_network.node[4].content_store 	misses[4] 	46264
scalar simple_scenario_network.client[0] 	hdistance[0] 	1.6091876976014
scalar simple_scenario_network.client[0] 	downloads[0] 	179022
scalar simple_scenario_network.client[0] 	avg_time[0] 	0.001990916262
