version 2
run General-1054-20140502-03:05:23-9958
attr D costprob0.005
attr F nrr
attr R lru
attr a 0.8
attr configname General
attr csize 1e3
attr ctlg 1e5
attr datetime 20140502-03:05:23
attr experiment General
attr inifile omnetpp.ini
attr iterationvars "$net=three_caches_scenario_3_links, $rep=2, $priceratiovalue=10, $weights=0.2_0.4_0.4, $a=0.8, $ctlg=1e5, $F=nrr, $ttl=1000, $D=costprob0.005, $xi=1, $R=lru, $csize=1e3"
attr iterationvars2 "$net=three_caches_scenario_3_links, $rep=2, $priceratiovalue=10, $weights=0.2_0.4_0.4, $a=0.8, $ctlg=1e5, $F=nrr, $ttl=1000, $D=costprob0.005, $xi=1, $R=lru, $csize=1e3, $repetition=0"
attr measurement "$net=three_caches_scenario_3_links, $rep=2, $priceratiovalue=10, $weights=0.2_0.4_0.4, $a=0.8, $ctlg=1e5, $F=nrr, $ttl=1000, $D=costprob0.005, $xi=1, $R=lru, $csize=1e3"
attr net three_caches_scenario_3_links
attr network networks.${net=three_caches_scenario_3_links}_network
attr priceratiovalue 10
attr processid 9958
attr rep 2
attr repetition 0
attr replication #0
attr resultdir results
attr runnumber 1054
attr seedset 2
attr ttl 1000
attr weights 0.2_0.4_0.4
attr xi 1

scalar . 	a 	0.8
scalar . 	csize 	1e3
scalar . 	ctlg 	1e5
scalar . 	priceratiovalue 	10
scalar . 	rep 	2
scalar . 	ttl 	1000
scalar . 	xi 	1
scalar three_caches_scenario_3_links_network.content_distribution 	repo-0 	4
scalar three_caches_scenario_3_links_network.content_distribution 	repo-1 	5
scalar three_caches_scenario_3_links_network.content_distribution 	repo-2 	6
scalar three_caches_scenario_3_links_network.content_distribution 	client-0 	0
scalar three_caches_scenario_3_links_network.content_distribution 	repo-0_card 	20021
scalar three_caches_scenario_3_links_network.content_distribution 	repo-1_card 	39941
scalar three_caches_scenario_3_links_network.content_distribution 	repo-2_card 	40038
scalar three_caches_scenario_3_links_network.statistics 	p_hit 	0.085719914968632
scalar three_caches_scenario_3_links_network.statistics 	interests 	68882.142857143
scalar three_caches_scenario_3_links_network.statistics 	data 	43100.285714286
scalar three_caches_scenario_3_links_network.statistics 	hdistance 	2.2433106337236
scalar three_caches_scenario_3_links_network.statistics 	avg_time 	0
scalar three_caches_scenario_3_links_network.statistics 	downloads 	180473
scalar three_caches_scenario_3_links_network.statistics 	total_cost 	542229
scalar three_caches_scenario_3_links_network.statistics 	total_replicas 	100000
scalar three_caches_scenario_3_links_network.statistics 	interests_sent 	180473
scalar three_caches_scenario_3_links_network.node[0].core_layer 	interests[0] 	180473
scalar three_caches_scenario_3_links_network.node[0].core_layer 	data[0] 	162561
scalar three_caches_scenario_3_links_network.node[0].core_layer 	repo_int[0] 	139141
scalar three_caches_scenario_3_links_network.node[0].content_store 	p_hit[0] 	0.099250303369479
scalar three_caches_scenario_3_links_network.node[0].content_store 	hits[0] 	17912
scalar three_caches_scenario_3_links_network.node[0].content_store 	misses[0] 	162561
scalar three_caches_scenario_3_links_network.node[0].content_store 	decision_yes[0] 	635
scalar three_caches_scenario_3_links_network.node[0].content_store 	decision_no[0] 	161926
scalar three_caches_scenario_3_links_network.node[1].core_layer 	interests[1] 	35986
scalar three_caches_scenario_3_links_network.node[1].core_layer 	data[1] 	35986
scalar three_caches_scenario_3_links_network.node[1].content_store 	p_hit[1] 	0
scalar three_caches_scenario_3_links_network.node[1].content_store 	hits[1] 	0
scalar three_caches_scenario_3_links_network.node[1].content_store 	misses[1] 	35986
scalar three_caches_scenario_3_links_network.node[1].content_store 	decision_yes[1] 	0
scalar three_caches_scenario_3_links_network.node[1].content_store 	decision_no[1] 	35986
scalar three_caches_scenario_3_links_network.node[2].core_layer 	interests[2] 	64728
scalar three_caches_scenario_3_links_network.node[2].core_layer 	data[2] 	54369
scalar three_caches_scenario_3_links_network.node[2].content_store 	p_hit[2] 	0.16003893214683
scalar three_caches_scenario_3_links_network.node[2].content_store 	hits[2] 	10359
scalar three_caches_scenario_3_links_network.node[2].content_store 	misses[2] 	54369
scalar three_caches_scenario_3_links_network.node[2].content_store 	decision_yes[2] 	63
scalar three_caches_scenario_3_links_network.node[2].content_store 	decision_no[2] 	54306
scalar three_caches_scenario_3_links_network.node[3].core_layer 	interests[3] 	61847
scalar three_caches_scenario_3_links_network.node[3].core_layer 	data[3] 	48786
scalar three_caches_scenario_3_links_network.node[3].content_store 	p_hit[3] 	0.21118243407118
scalar three_caches_scenario_3_links_network.node[3].content_store 	hits[3] 	13061
scalar three_caches_scenario_3_links_network.node[3].content_store 	misses[3] 	48786
scalar three_caches_scenario_3_links_network.node[3].content_store 	decision_yes[3] 	566
scalar three_caches_scenario_3_links_network.node[3].content_store 	decision_no[3] 	48220
scalar three_caches_scenario_3_links_network.node[4].core_layer 	interests[4] 	35986
scalar three_caches_scenario_3_links_network.node[4].core_layer 	repo_load[4] 	35986
scalar three_caches_scenario_3_links_network.node[4].core_layer 	data[4] 	0
scalar three_caches_scenario_3_links_network.node[4].content_store 	p_hit[4] 	0
scalar three_caches_scenario_3_links_network.node[4].content_store 	hits[4] 	0
scalar three_caches_scenario_3_links_network.node[4].content_store 	misses[4] 	35986
scalar three_caches_scenario_3_links_network.node[4].content_store 	decision_yes[4] 	0
scalar three_caches_scenario_3_links_network.node[4].content_store 	decision_no[4] 	35986
scalar three_caches_scenario_3_links_network.node[5].core_layer 	interests[5] 	54369
scalar three_caches_scenario_3_links_network.node[5].core_layer 	repo_load[5] 	54369
scalar three_caches_scenario_3_links_network.node[5].core_layer 	data[5] 	0
scalar three_caches_scenario_3_links_network.node[5].content_store 	p_hit[5] 	0
scalar three_caches_scenario_3_links_network.node[5].content_store 	hits[5] 	0
scalar three_caches_scenario_3_links_network.node[5].content_store 	misses[5] 	54369
scalar three_caches_scenario_3_links_network.node[5].content_store 	decision_yes[5] 	0
scalar three_caches_scenario_3_links_network.node[5].content_store 	decision_no[5] 	54369
scalar three_caches_scenario_3_links_network.node[6].core_layer 	interests[6] 	48786
scalar three_caches_scenario_3_links_network.node[6].core_layer 	repo_load[6] 	48786
scalar three_caches_scenario_3_links_network.node[6].core_layer 	data[6] 	0
scalar three_caches_scenario_3_links_network.node[6].content_store 	p_hit[6] 	0
scalar three_caches_scenario_3_links_network.node[6].content_store 	hits[6] 	0
scalar three_caches_scenario_3_links_network.node[6].content_store 	misses[6] 	48786
scalar three_caches_scenario_3_links_network.node[6].content_store 	decision_yes[6] 	0
scalar three_caches_scenario_3_links_network.node[6].content_store 	decision_no[6] 	48786
scalar three_caches_scenario_3_links_network.client[0] 	hdistance[0] 	2.2433106337236
scalar three_caches_scenario_3_links_network.client[0] 	downloads[0] 	180473
scalar three_caches_scenario_3_links_network.client[0] 	avg_time[0] 	0
scalar three_caches_scenario_3_links_network.client[0] 	interests_sent[0] 	180473
