version 2
run General-503-20140422-19:49:19-27234
attr D costprob0.01
attr F nrr
attr R lru
attr a 1.2
attr configname General
attr csize 10
attr ctlg 10^3
attr datetime 20140422-19:49:19
attr experiment General
attr inifile omnetpp.ini
attr iterationvars "$net=simple_scenario, $rep=5, $priceratiovalue=2, $a=1.2, $ctlg=10^3, $F=nrr, $ttl=1000, $D=costprob0.01, $R=lru, $csize=10"
attr iterationvars2 "$net=simple_scenario, $rep=5, $priceratiovalue=2, $a=1.2, $ctlg=10^3, $F=nrr, $ttl=1000, $D=costprob0.01, $R=lru, $csize=10, $repetition=0"
attr measurement "$net=simple_scenario, $rep=5, $priceratiovalue=2, $a=1.2, $ctlg=10^3, $F=nrr, $ttl=1000, $D=costprob0.01, $R=lru, $csize=10"
attr net simple_scenario
attr network networks.${net=simple_scenario}_network
attr priceratiovalue 2
attr processid 27234
attr rep 5
attr repetition 0
attr replication #0
attr resultdir results
attr runnumber 503
attr seedset 5
attr ttl 1000

scalar . 	a 	1.2
scalar . 	csize 	10
scalar . 	priceratiovalue 	2
scalar . 	rep 	5
scalar . 	ttl 	1000
scalar simple_scenario_network.content_distribution 	repo-0 	3
scalar simple_scenario_network.content_distribution 	repo-1 	4
scalar simple_scenario_network.content_distribution 	client-0 	0
scalar simple_scenario_network.content_distribution 	repo-0_card 	495
scalar simple_scenario_network.content_distribution 	repo-1_card 	505
scalar simple_scenario_network.statistics 	p_hit 	0.31170044130581
scalar simple_scenario_network.statistics 	interests 	77089.4
scalar simple_scenario_network.statistics 	data 	40990.6
scalar simple_scenario_network.statistics 	hdistance 	1.4698715746784
scalar simple_scenario_network.statistics 	avg_time 	0.001985432974
scalar simple_scenario_network.statistics 	downloads 	180494
scalar simple_scenario_network.statistics 	total_cost 	30448
scalar simple_scenario_network.node[0].core_layer 	interests[0] 	180494
scalar simple_scenario_network.node[0].core_layer 	data[0] 	144603
scalar simple_scenario_network.node[0].core_layer 	repo_int[0] 	60350
scalar simple_scenario_network.node[0].content_store 	p_hit[0] 	0.19884871519275
scalar simple_scenario_network.node[0].content_store 	hits[0] 	35891
scalar simple_scenario_network.node[0].content_store 	misses[0] 	144603
scalar simple_scenario_network.node[1].core_layer 	interests[1] 	44003
scalar simple_scenario_network.node[1].core_layer 	data[1] 	29355
scalar simple_scenario_network.node[1].content_store 	p_hit[1] 	0.33288639410949
scalar simple_scenario_network.node[1].content_store 	hits[1] 	14648
scalar simple_scenario_network.node[1].content_store 	misses[1] 	29355
scalar simple_scenario_network.node[2].core_layer 	interests[2] 	100600
scalar simple_scenario_network.node[2].core_layer 	data[2] 	30995
scalar simple_scenario_network.node[2].content_store 	p_hit[2] 	0.6918986083499
scalar simple_scenario_network.node[2].content_store 	hits[2] 	69605
scalar simple_scenario_network.node[2].content_store 	misses[2] 	30995
scalar simple_scenario_network.node[3].core_layer 	interests[3] 	29355
scalar simple_scenario_network.node[3].core_layer 	repo_load[3] 	29355
scalar simple_scenario_network.node[3].core_layer 	data[3] 	0
scalar simple_scenario_network.node[3].content_store 	p_hit[3] 	0
scalar simple_scenario_network.node[3].content_store 	hits[3] 	0
scalar simple_scenario_network.node[3].content_store 	misses[3] 	29355
scalar simple_scenario_network.node[4].core_layer 	interests[4] 	30995
scalar simple_scenario_network.node[4].core_layer 	repo_load[4] 	30995
scalar simple_scenario_network.node[4].core_layer 	data[4] 	0
scalar simple_scenario_network.node[4].content_store 	p_hit[4] 	0
scalar simple_scenario_network.node[4].content_store 	hits[4] 	0
scalar simple_scenario_network.node[4].content_store 	misses[4] 	30995
scalar simple_scenario_network.client[0] 	hdistance[0] 	1.4698715746784
scalar simple_scenario_network.client[0] 	downloads[0] 	180494
scalar simple_scenario_network.client[0] 	avg_time[0] 	0.001985432974
