version 2
run General-6-20150806-15:05:18-23757
attr C 1e3
attr D fix0.001
attr F spr
attr R lru_repr
attr a 1
attr brates 0.3_0.7_1.5_2.5_3.5
attr configname General
attr ctlg 1e5
attr datetime 20150806-15:05:18
attr experiment General
attr inifile omnetpp.ini
attr iterationvars "$net=abilene_nodelay, $rep=0, $lambda=100, $a=1, $ctlg=1e5, $brates=0.3_0.7_1.5_2.5_3.5, $F=spr, $ttl=1000, $D=fix0.001, $R=lru_repr, $proactiveprob=0.001, $C=1e3, $window=60, $variance=0.05, $mytime=180000"
attr iterationvars2 "$net=abilene_nodelay, $rep=0, $lambda=100, $a=1, $ctlg=1e5, $brates=0.3_0.7_1.5_2.5_3.5, $F=spr, $ttl=1000, $D=fix0.001, $R=lru_repr, $proactiveprob=0.001, $C=1e3, $window=60, $variance=0.05, $mytime=180000, $repetition=0"
attr lambda 100
attr measurement "$net=abilene_nodelay, $rep=0, $lambda=100, $a=1, $ctlg=1e5, $brates=0.3_0.7_1.5_2.5_3.5, $F=spr, $ttl=1000, $D=fix0.001, $R=lru_repr, $proactiveprob=0.001, $C=1e3, $window=60, $variance=0.05, $mytime=180000"
attr mytime 180000
attr net abilene_nodelay
attr network networks.${net=abilene_nodelay}_network
attr proactiveprob 0.001
attr processid 23757
attr rep 0
attr repetition 0
attr replication #0
attr resultdir results
attr runnumber 6
attr seedset 0
attr ttl 1000
attr variance 0.05
attr window 60

scalar . 	C 	1e3
scalar . 	a 	1
scalar . 	ctlg 	1e5
scalar . 	lambda 	100
scalar . 	mytime 	180000
scalar . 	proactiveprob 	0.001
scalar . 	rep 	0
scalar . 	ttl 	1000
scalar . 	variance 	0.05
scalar . 	window 	60
scalar abilene_nodelay_network.content_distribution 	repo-0 	5
scalar abilene_nodelay_network.content_distribution 	repo-1 	8
scalar abilene_nodelay_network.content_distribution 	repo-2 	9
scalar abilene_nodelay_network.content_distribution 	repo-3 	0
scalar abilene_nodelay_network.content_distribution 	repo-4 	1
scalar abilene_nodelay_network.content_distribution 	repo-5 	7
scalar abilene_nodelay_network.content_distribution 	repo-6 	6
scalar abilene_nodelay_network.content_distribution 	repo-7 	2
scalar abilene_nodelay_network.content_distribution 	repo-8 	4
scalar abilene_nodelay_network.content_distribution 	repo-9 	10
scalar abilene_nodelay_network.content_distribution 	repo-10 	3
scalar abilene_nodelay_network.content_distribution 	client-0 	10
scalar abilene_nodelay_network.content_distribution 	client-1 	9
scalar abilene_nodelay_network.content_distribution 	client-2 	8
scalar abilene_nodelay_network.content_distribution 	client-3 	7
scalar abilene_nodelay_network.content_distribution 	client-4 	3
scalar abilene_nodelay_network.content_distribution 	client-5 	6
scalar abilene_nodelay_network.content_distribution 	client-6 	5
scalar abilene_nodelay_network.content_distribution 	client-7 	1
scalar abilene_nodelay_network.content_distribution 	client-8 	4
scalar abilene_nodelay_network.content_distribution 	client-9 	0
scalar abilene_nodelay_network.content_distribution 	client-10 	2
scalar abilene_nodelay_network.content_distribution 	repo-0_card 	9071
scalar abilene_nodelay_network.content_distribution 	repo-0_price 	0
scalar abilene_nodelay_network.content_distribution 	repo-1_card 	8986
scalar abilene_nodelay_network.content_distribution 	repo-1_price 	0
scalar abilene_nodelay_network.content_distribution 	repo-2_card 	9050
scalar abilene_nodelay_network.content_distribution 	repo-2_price 	0
scalar abilene_nodelay_network.content_distribution 	repo-3_card 	8986
scalar abilene_nodelay_network.content_distribution 	repo-3_price 	0
scalar abilene_nodelay_network.content_distribution 	repo-4_card 	9064
scalar abilene_nodelay_network.content_distribution 	repo-4_price 	0
scalar abilene_nodelay_network.content_distribution 	repo-5_card 	9170
scalar abilene_nodelay_network.content_distribution 	repo-5_price 	0
scalar abilene_nodelay_network.content_distribution 	repo-6_card 	9151
scalar abilene_nodelay_network.content_distribution 	repo-6_price 	0
scalar abilene_nodelay_network.content_distribution 	repo-7_card 	9112
scalar abilene_nodelay_network.content_distribution 	repo-7_price 	0
scalar abilene_nodelay_network.content_distribution 	repo-8_card 	9132
scalar abilene_nodelay_network.content_distribution 	repo-8_price 	0
scalar abilene_nodelay_network.content_distribution 	repo-9_card 	9101
scalar abilene_nodelay_network.content_distribution 	repo-9_price 	0
scalar abilene_nodelay_network.content_distribution 	repo-10_card 	9177
scalar abilene_nodelay_network.content_distribution 	repo-10_price 	0
scalar abilene_nodelay_network.statistics 	stabilization_time 	36060
scalar abilene_nodelay_network.statistics 	p_hit 	0.46626086281724
scalar abilene_nodelay_network.statistics 	interests 	27780536.090909
scalar abilene_nodelay_network.statistics 	data 	9770415.8181818
scalar abilene_nodelay_network.statistics 	hdistance 	0.82194971067177
scalar abilene_nodelay_network.statistics 	avg_time 	0
scalar abilene_nodelay_network.statistics 	downloads 	197980075
scalar abilene_nodelay_network.statistics 	total_cost 	0
scalar abilene_nodelay_network.statistics 	total_replicas 	100000
scalar abilene_nodelay_network.statistics 	"representations_downloaded 0.841946:0.0653666:0.0253221:0.0135007:0.0538643:" 	0
scalar abilene_nodelay_network.statistics 	"slots_per_representation 100:233:500:833:1167:" 	0
scalar abilene_nodelay_network.statistics 	inner_hit 	0.71901930535181
scalar abilene_nodelay_network.statistics 	execution_time 	19941
scalar abilene_nodelay_network.node[0].core_layer 	interests[0] 	20845672
scalar abilene_nodelay_network.node[0].core_layer 	repo_load[0] 	4124069
scalar abilene_nodelay_network.node[0].core_layer 	data[0] 	5540816
scalar abilene_nodelay_network.node[0].core_layer 	slots_sent[face$o[1]->client[0]] 	2897589261
scalar abilene_nodelay_network.node[0].core_layer 	slots_sent[face$o[2]->node[1]] 	195365910
scalar abilene_nodelay_network.node[0].core_layer 	slots_sent[face$o[3]->node[10]] 	89640643
scalar abilene_nodelay_network.node[0].content_store 	p_hit[0] 	0.53636011350462
scalar abilene_nodelay_network.node[0].content_store 	hits[0] 	11180787
scalar abilene_nodelay_network.node[0].content_store 	misses[0] 	9664885
scalar abilene_nodelay_network.node[0].content_store 	decision_yes[0] 	5495
scalar abilene_nodelay_network.node[0].content_store 	decision_no[0] 	9659390
scalar abilene_nodelay_network.node[0].content_store 	decision_ratio[0] 	0.00056855306607373
scalar abilene_nodelay_network.node[0].content_store 	"representation_breakdown[0] 7235:8:1:1:0:" 	0
scalar abilene_nodelay_network.node[0].proactive_component 	hdistance[0].proactive_component 	3.0762349280436
scalar abilene_nodelay_network.node[0].proactive_component 	downloads[0].proactive_component 	12855
scalar abilene_nodelay_network.node[0].proactive_component 	avg_time[0].proactive_component 	0
scalar abilene_nodelay_network.node[1].core_layer 	interests[1] 	31333767
scalar abilene_nodelay_network.node[1].core_layer 	repo_load[1] 	5537839
scalar abilene_nodelay_network.node[1].core_layer 	data[1] 	12066397
scalar abilene_nodelay_network.node[1].core_layer 	slots_sent[face$o[1]->client[1]] 	3554559393
scalar abilene_nodelay_network.node[1].core_layer 	slots_sent[face$o[2]->node[0]] 	446559014
scalar abilene_nodelay_network.node[1].core_layer 	slots_sent[face$o[3]->node[10]] 	311609695
scalar abilene_nodelay_network.node[1].core_layer 	slots_sent[face$o[4]->node[2]] 	582383953
scalar abilene_nodelay_network.node[1].content_store 	p_hit[1] 	0.43817045681102
scalar abilene_nodelay_network.node[1].content_store 	hits[1] 	13729531
scalar abilene_nodelay_network.node[1].content_store 	misses[1] 	17604236
scalar abilene_nodelay_network.node[1].content_store 	decision_yes[1] 	12159
scalar abilene_nodelay_network.node[1].content_store 	decision_no[1] 	17592077
scalar abilene_nodelay_network.node[1].content_store 	decision_ratio[1] 	0.00069068603715606
scalar abilene_nodelay_network.node[1].content_store 	"representation_breakdown[1] 11519:48:3:0:2:" 	0
scalar abilene_nodelay_network.node[1].proactive_component 	hdistance[1].proactive_component 	2.9296435892349
scalar abilene_nodelay_network.node[1].proactive_component 	downloads[1].proactive_component 	15123
scalar abilene_nodelay_network.node[1].proactive_component 	avg_time[1].proactive_component 	0
scalar abilene_nodelay_network.node[2].core_layer 	interests[2] 	38407868
scalar abilene_nodelay_network.node[2].core_layer 	repo_load[2] 	6182370
scalar abilene_nodelay_network.node[2].core_layer 	data[2] 	17067032
scalar abilene_nodelay_network.node[2].core_layer 	slots_sent[face$o[1]->client[2]] 	3628444127
scalar abilene_nodelay_network.node[2].core_layer 	slots_sent[face$o[2]->node[1]] 	801835192
scalar abilene_nodelay_network.node[2].core_layer 	slots_sent[face$o[3]->node[3]] 	858801527
scalar abilene_nodelay_network.node[2].core_layer 	slots_sent[face$o[4]->node[8]] 	395260124
scalar abilene_nodelay_network.node[2].content_store 	p_hit[2] 	0.39467085233682
scalar abilene_nodelay_network.node[2].content_store 	hits[2] 	15158466
scalar abilene_nodelay_network.node[2].content_store 	misses[2] 	23249402
scalar abilene_nodelay_network.node[2].content_store 	decision_yes[2] 	17231
scalar abilene_nodelay_network.node[2].content_store 	decision_no[2] 	23232171
scalar abilene_nodelay_network.node[2].content_store 	decision_ratio[2] 	0.0007411373419411
scalar abilene_nodelay_network.node[2].content_store 	"representation_breakdown[2] 11502:47:7:0:2:" 	0
scalar abilene_nodelay_network.node[2].proactive_component 	hdistance[2].proactive_component 	2.7029184038118
scalar abilene_nodelay_network.node[2].proactive_component 	downloads[2].proactive_component 	16790
scalar abilene_nodelay_network.node[2].proactive_component 	avg_time[2].proactive_component 	0
scalar abilene_nodelay_network.node[3].core_layer 	interests[3] 	36592917
scalar abilene_nodelay_network.node[3].core_layer 	repo_load[3] 	5228387
scalar abilene_nodelay_network.node[3].core_layer 	data[3] 	15783173
scalar abilene_nodelay_network.node[3].core_layer 	slots_sent[face$o[1]->client[3]] 	3904985124
scalar abilene_nodelay_network.node[3].core_layer 	slots_sent[face$o[2]->node[2]] 	826908383
scalar abilene_nodelay_network.node[3].core_layer 	slots_sent[face$o[3]->node[4]] 	612542162
scalar abilene_nodelay_network.node[3].core_layer 	slots_sent[face$o[4]->node[7]] 	432507044
scalar abilene_nodelay_network.node[3].content_store 	p_hit[3] 	0.42580253987404
scalar abilene_nodelay_network.node[3].content_store 	hits[3] 	15581357
scalar abilene_nodelay_network.node[3].content_store 	misses[3] 	21011560
scalar abilene_nodelay_network.node[3].content_store 	decision_yes[3] 	15712
scalar abilene_nodelay_network.node[3].content_store 	decision_no[3] 	20995848
scalar abilene_nodelay_network.node[3].content_store 	decision_ratio[3] 	0.00074777884174236
scalar abilene_nodelay_network.node[3].content_store 	"representation_breakdown[3] 11548:35:4:1:1:" 	0
scalar abilene_nodelay_network.node[3].proactive_component 	hdistance[3].proactive_component 	2.6598035735416
scalar abilene_nodelay_network.node[3].proactive_component 	downloads[3].proactive_component 	16902
scalar abilene_nodelay_network.node[3].proactive_component 	avg_time[3].proactive_component 	0
scalar abilene_nodelay_network.node[4].core_layer 	interests[4] 	25614159
scalar abilene_nodelay_network.node[4].core_layer 	repo_load[4] 	4504559
scalar abilene_nodelay_network.node[4].core_layer 	data[4] 	8231099
scalar abilene_nodelay_network.node[4].core_layer 	slots_sent[face$o[1]->client[4]] 	3400762214
scalar abilene_nodelay_network.node[4].core_layer 	slots_sent[face$o[2]->node[3]] 	395469566
scalar abilene_nodelay_network.node[4].core_layer 	slots_sent[face$o[3]->node[5]] 	369334719
scalar abilene_nodelay_network.node[4].content_store 	p_hit[4] 	0.50278836014097
scalar abilene_nodelay_network.node[4].content_store 	hits[4] 	12878501
scalar abilene_nodelay_network.node[4].content_store 	misses[4] 	12735658
scalar abilene_nodelay_network.node[4].content_store 	decision_yes[4] 	8209
scalar abilene_nodelay_network.node[4].content_store 	decision_no[4] 	12727449
scalar abilene_nodelay_network.node[4].content_store 	decision_ratio[4] 	0.00064456818799625
scalar abilene_nodelay_network.node[4].content_store 	"representation_breakdown[4] 10910:24:0:0:1:" 	0
scalar abilene_nodelay_network.node[4].proactive_component 	hdistance[4].proactive_component 	2.8814585178624
scalar abilene_nodelay_network.node[4].proactive_component 	downloads[4].proactive_component 	13548
scalar abilene_nodelay_network.node[4].proactive_component 	avg_time[4].proactive_component 	0
scalar abilene_nodelay_network.node[5].core_layer 	interests[5] 	21992425
scalar abilene_nodelay_network.node[5].core_layer 	repo_load[5] 	5656392
scalar abilene_nodelay_network.node[5].core_layer 	data[5] 	6232235
scalar abilene_nodelay_network.node[5].core_layer 	slots_sent[face$o[1]->client[5]] 	2519592714
scalar abilene_nodelay_network.node[5].core_layer 	slots_sent[face$o[2]->node[4]] 	215743208
scalar abilene_nodelay_network.node[5].core_layer 	slots_sent[face$o[3]->node[6]] 	185809497
scalar abilene_nodelay_network.node[5].content_store 	p_hit[5] 	0.45942173271024
scalar abilene_nodelay_network.node[5].content_store 	hits[5] 	10103798
scalar abilene_nodelay_network.node[5].content_store 	misses[5] 	11888627
scalar abilene_nodelay_network.node[5].content_store 	decision_yes[5] 	6211
scalar abilene_nodelay_network.node[5].content_store 	decision_no[5] 	11882416
scalar abilene_nodelay_network.node[5].content_store 	decision_ratio[5] 	0.00052243206890081
scalar abilene_nodelay_network.node[5].content_store 	"representation_breakdown[5] 8061:23:1:0:1:" 	0
scalar abilene_nodelay_network.node[5].proactive_component 	hdistance[5].proactive_component 	3.3569856985699
scalar abilene_nodelay_network.node[5].proactive_component 	downloads[5].proactive_component 	10908
scalar abilene_nodelay_network.node[5].proactive_component 	avg_time[5].proactive_component 	0
scalar abilene_nodelay_network.node[6].core_layer 	interests[6] 	23871808
scalar abilene_nodelay_network.node[6].core_layer 	repo_load[6] 	4395874
scalar abilene_nodelay_network.node[6].core_layer 	data[6] 	7311001
scalar abilene_nodelay_network.node[6].core_layer 	slots_sent[face$o[1]->client[6]] 	3658496465
scalar abilene_nodelay_network.node[6].core_layer 	slots_sent[face$o[2]->node[5]] 	256459537
scalar abilene_nodelay_network.node[6].core_layer 	slots_sent[face$o[3]->node[7]] 	333087676
scalar abilene_nodelay_network.node[6].content_store 	p_hit[6] 	0.50959412039507
scalar abilene_nodelay_network.node[6].content_store 	hits[6] 	12164933
scalar abilene_nodelay_network.node[6].content_store 	misses[6] 	11706875
scalar abilene_nodelay_network.node[6].content_store 	decision_yes[6] 	7327
scalar abilene_nodelay_network.node[6].content_store 	decision_no[6] 	11699548
scalar abilene_nodelay_network.node[6].content_store 	decision_ratio[6] 	0.00062587154983717
scalar abilene_nodelay_network.node[6].content_store 	"representation_breakdown[6] 9598:22:0:0:2:" 	0
scalar abilene_nodelay_network.node[6].proactive_component 	hdistance[6].proactive_component 	3.0588804645911
scalar abilene_nodelay_network.node[6].proactive_component 	downloads[6].proactive_component 	12398
scalar abilene_nodelay_network.node[6].proactive_component 	avg_time[6].proactive_component 	0
scalar abilene_nodelay_network.node[7].core_layer 	interests[7] 	30083141
scalar abilene_nodelay_network.node[7].core_layer 	repo_load[7] 	5110296
scalar abilene_nodelay_network.node[7].core_layer 	data[7] 	10817502
scalar abilene_nodelay_network.node[7].core_layer 	slots_sent[face$o[1]->client[7]] 	4118864866
scalar abilene_nodelay_network.node[7].core_layer 	slots_sent[face$o[2]->node[3]] 	334825408
scalar abilene_nodelay_network.node[7].core_layer 	slots_sent[face$o[3]->node[6]] 	548729187
scalar abilene_nodelay_network.node[7].core_layer 	slots_sent[face$o[4]->node[8]] 	329263355
scalar abilene_nodelay_network.node[7].content_store 	p_hit[7] 	0.47054072578392
scalar abilene_nodelay_network.node[7].content_store 	hits[7] 	14155343
scalar abilene_nodelay_network.node[7].content_store 	misses[7] 	15927798
scalar abilene_nodelay_network.node[7].content_store 	decision_yes[7] 	10952
scalar abilene_nodelay_network.node[7].content_store 	decision_no[7] 	15916846
scalar abilene_nodelay_network.node[7].content_store 	decision_ratio[7] 	0.00068760289400958
scalar abilene_nodelay_network.node[7].content_store 	"representation_breakdown[7] 11554:34:1:1:2:" 	0
scalar abilene_nodelay_network.node[7].proactive_component 	hdistance[7].proactive_component 	2.7538758354579
scalar abilene_nodelay_network.node[7].proactive_component 	downloads[7].proactive_component 	14513
scalar abilene_nodelay_network.node[7].proactive_component 	avg_time[7].proactive_component 	0
scalar abilene_nodelay_network.node[8].core_layer 	interests[8] 	29220360
scalar abilene_nodelay_network.node[8].core_layer 	repo_load[8] 	4837544
scalar abilene_nodelay_network.node[8].core_layer 	data[8] 	10300863
scalar abilene_nodelay_network.node[8].core_layer 	slots_sent[face$o[1]->client[8]] 	3517813066
scalar abilene_nodelay_network.node[8].core_layer 	slots_sent[face$o[2]->node[2]] 	311581815
scalar abilene_nodelay_network.node[8].core_layer 	slots_sent[face$o[3]->node[7]] 	324259923
scalar abilene_nodelay_network.node[8].core_layer 	slots_sent[face$o[4]->node[9]] 	493238880
scalar abilene_nodelay_network.node[8].content_store 	p_hit[8] 	0.48192263887235
scalar abilene_nodelay_network.node[8].content_store 	hits[8] 	14081953
scalar abilene_nodelay_network.node[8].content_store 	misses[8] 	15138407
scalar abilene_nodelay_network.node[8].content_store 	decision_yes[8] 	10379
scalar abilene_nodelay_network.node[8].content_store 	decision_no[8] 	15128028
scalar abilene_nodelay_network.node[8].content_store 	decision_ratio[8] 	0.00068560714479403
scalar abilene_nodelay_network.node[8].content_store 	"representation_breakdown[8] 11529:44:2:2:1:" 	0
scalar abilene_nodelay_network.node[8].proactive_component 	hdistance[8].proactive_component 	2.5579424517146
scalar abilene_nodelay_network.node[8].proactive_component 	downloads[8].proactive_component 	15222
scalar abilene_nodelay_network.node[8].proactive_component 	avg_time[8].proactive_component 	0
scalar abilene_nodelay_network.node[9].core_layer 	interests[9] 	23972554
scalar abilene_nodelay_network.node[9].core_layer 	repo_load[9] 	4686812
scalar abilene_nodelay_network.node[9].core_layer 	data[9] 	7281844
scalar abilene_nodelay_network.node[9].core_layer 	slots_sent[face$o[1]->client[9]] 	2782602100
scalar abilene_nodelay_network.node[9].core_layer 	slots_sent[face$o[2]->node[10]] 	285869710
scalar abilene_nodelay_network.node[9].core_layer 	slots_sent[face$o[3]->node[8]] 	313732476
scalar abilene_nodelay_network.node[9].content_store 	p_hit[9] 	0.50073504892303
scalar abilene_nodelay_network.node[9].content_store 	hits[9] 	12003898
scalar abilene_nodelay_network.node[9].content_store 	misses[9] 	11968656
scalar abilene_nodelay_network.node[9].content_store 	decision_yes[9] 	7292
scalar abilene_nodelay_network.node[9].content_store 	decision_no[9] 	11961364
scalar abilene_nodelay_network.node[9].content_store 	decision_ratio[9] 	0.00060925804868984
scalar abilene_nodelay_network.node[9].content_store 	"representation_breakdown[9] 9644:16:1:0:1:" 	0
scalar abilene_nodelay_network.node[9].proactive_component 	hdistance[9].proactive_component 	2.8926818548092
scalar abilene_nodelay_network.node[9].proactive_component 	downloads[9].proactive_component 	13651
scalar abilene_nodelay_network.node[9].proactive_component 	avg_time[9].proactive_component 	0
scalar abilene_nodelay_network.node[10].core_layer 	interests[10] 	23651226
scalar abilene_nodelay_network.node[10].core_layer 	repo_load[10] 	5364437
scalar abilene_nodelay_network.node[10].core_layer 	data[10] 	6842612
scalar abilene_nodelay_network.node[10].core_layer 	slots_sent[face$o[1]->client[10]] 	2878566478
scalar abilene_nodelay_network.node[10].core_layer 	slots_sent[face$o[2]->node[0]] 	110667556
scalar abilene_nodelay_network.node[10].core_layer 	slots_sent[face$o[3]->node[1]] 	218227615
scalar abilene_nodelay_network.node[10].core_layer 	slots_sent[face$o[4]->node[9]] 	238967673
scalar abilene_nodelay_network.node[10].content_store 	p_hit[10] 	0.48387246394753
scalar abilene_nodelay_network.node[10].content_store 	hits[10] 	11444177
scalar abilene_nodelay_network.node[10].content_store 	misses[10] 	12207049
scalar abilene_nodelay_network.node[10].content_store 	decision_yes[10] 	6709
scalar abilene_nodelay_network.node[10].content_store 	decision_no[10] 	12200340
scalar abilene_nodelay_network.node[10].content_store 	decision_ratio[10] 	0.00054960048083693
scalar abilene_nodelay_network.node[10].content_store 	"representation_breakdown[10] 8932:14:2:0:1:" 	0
scalar abilene_nodelay_network.node[10].proactive_component 	hdistance[10].proactive_component 	2.9395378793978
scalar abilene_nodelay_network.node[10].proactive_component 	downloads[10].proactive_component 	12421
scalar abilene_nodelay_network.node[10].proactive_component 	avg_time[10].proactive_component 	0
scalar abilene_nodelay_network.client[0] 	hdistance[0].real 	0.92460948009171
scalar abilene_nodelay_network.client[0] 	downloads[0].real 	17997674
scalar abilene_nodelay_network.client[0] 	avg_time[0].real 	0
scalar abilene_nodelay_network.client[1] 	hdistance[1].real 	0.80221969762298
scalar abilene_nodelay_network.client[1] 	downloads[1].real 	17997136
scalar abilene_nodelay_network.client[1] 	avg_time[1].real 	0
scalar abilene_nodelay_network.client[2] 	hdistance[2].real 	0.76455370303593
scalar abilene_nodelay_network.client[2] 	downloads[2].real 	17996571
scalar abilene_nodelay_network.client[2] 	avg_time[2].real 	0
scalar abilene_nodelay_network.client[3] 	hdistance[3].real 	0.72998198428034
scalar abilene_nodelay_network.client[3] 	downloads[3].real 	17999836
scalar abilene_nodelay_network.client[3] 	avg_time[3].real 	0
scalar abilene_nodelay_network.client[4] 	hdistance[4].real 	0.82153548867995
scalar abilene_nodelay_network.client[4] 	downloads[4].real 	18003910
scalar abilene_nodelay_network.client[4] 	avg_time[4].real 	0
scalar abilene_nodelay_network.client[5] 	hdistance[5].real 	0.99723920720279
scalar abilene_nodelay_network.client[5] 	downloads[5].real 	17998091
scalar abilene_nodelay_network.client[5] 	avg_time[5].real 	0
scalar abilene_nodelay_network.client[6] 	hdistance[6].real 	0.85790593685421
scalar abilene_nodelay_network.client[6] 	downloads[6].real 	18002800
scalar abilene_nodelay_network.client[6] 	avg_time[6].real 	0
scalar abilene_nodelay_network.client[7] 	hdistance[7].real 	0.71769589202982
scalar abilene_nodelay_network.client[7] 	downloads[7].real 	17996674
scalar abilene_nodelay_network.client[7] 	avg_time[7].real 	0
scalar abilene_nodelay_network.client[8] 	hdistance[8].real 	0.70487643992275
scalar abilene_nodelay_network.client[8] 	downloads[8].real 	17994890
scalar abilene_nodelay_network.client[8] 	avg_time[8].real 	0
scalar abilene_nodelay_network.client[9] 	hdistance[9].real 	0.8381118518237
scalar abilene_nodelay_network.client[9] 	downloads[9].real 	17998884
scalar abilene_nodelay_network.client[9] 	avg_time[9].real 	0
scalar abilene_nodelay_network.client[10] 	hdistance[10].real 	0.88271713584527
scalar abilene_nodelay_network.client[10] 	downloads[10].real 	17993609
scalar abilene_nodelay_network.client[10] 	avg_time[10].real 	0
