version 2
run General-3-20140502-16:12:27-18173
attr D costprob0.1
attr F nrr
attr R lru
attr a 1
attr configname General
attr csize 1e3
attr ctlg 1e5
attr datetime 20140502-16:12:27
attr experiment General
attr inifile omnetpp.ini
attr iterationvars "$net=border_caches_scenario_3_links, $rep=1, $priceratiovalue=10, $weights=0.333_0.333_0.333, $a=1, $ctlg=1e5, $F=nrr, $ttl=1000, $D=costprob0.1, $xi=1, $R=lru, $csize=1e3"
attr iterationvars2 "$net=border_caches_scenario_3_links, $rep=1, $priceratiovalue=10, $weights=0.333_0.333_0.333, $a=1, $ctlg=1e5, $F=nrr, $ttl=1000, $D=costprob0.1, $xi=1, $R=lru, $csize=1e3, $repetition=0"
attr measurement "$net=border_caches_scenario_3_links, $rep=1, $priceratiovalue=10, $weights=0.333_0.333_0.333, $a=1, $ctlg=1e5, $F=nrr, $ttl=1000, $D=costprob0.1, $xi=1, $R=lru, $csize=1e3"
attr net border_caches_scenario_3_links
attr network networks.${net=border_caches_scenario_3_links}_network
attr priceratiovalue 10
attr processid 18173
attr rep 1
attr repetition 0
attr replication #0
attr resultdir results
attr runnumber 3
attr seedset 1
attr ttl 1000
attr weights 0.333_0.333_0.333
attr xi 1

scalar . 	a 	1
scalar . 	csize 	1e3
scalar . 	ctlg 	1e5
scalar . 	priceratiovalue 	10
scalar . 	rep 	1
scalar . 	ttl 	1000
scalar . 	xi 	1
scalar border_caches_scenario_3_links_network.content_distribution 	repo-0 	4
scalar border_caches_scenario_3_links_network.content_distribution 	repo-1 	5
scalar border_caches_scenario_3_links_network.content_distribution 	repo-2 	6
scalar border_caches_scenario_3_links_network.content_distribution 	client-0 	0
scalar border_caches_scenario_3_links_network.content_distribution 	repo-0_card 	33388
scalar border_caches_scenario_3_links_network.content_distribution 	repo-1_card 	33296
scalar border_caches_scenario_3_links_network.content_distribution 	repo-2_card 	33316
scalar border_caches_scenario_3_links_network.statistics 	p_hit 	0.1041739230205
scalar border_caches_scenario_3_links_network.statistics 	interests 	69725.428571429
scalar border_caches_scenario_3_links_network.statistics 	data 	44062.428571429
scalar border_caches_scenario_3_links_network.statistics 	hdistance 	1.0897679260303
scalar border_caches_scenario_3_links_network.statistics 	avg_time 	0
scalar border_caches_scenario_3_links_network.statistics 	downloads 	179641
scalar border_caches_scenario_3_links_network.statistics 	total_cost 	380900
scalar border_caches_scenario_3_links_network.statistics 	total_replicas 	100000
scalar border_caches_scenario_3_links_network.statistics 	interests_sent 	179641
scalar border_caches_scenario_3_links_network.node[0].core_layer 	interests[0] 	179641
scalar border_caches_scenario_3_links_network.node[0].core_layer 	data[0] 	179641
scalar border_caches_scenario_3_links_network.node[0].core_layer 	repo_int[0] 	128796
scalar border_caches_scenario_3_links_network.node[0].content_store 	p_hit[0] 	0
scalar border_caches_scenario_3_links_network.node[0].content_store 	hits[0] 	0
scalar border_caches_scenario_3_links_network.node[0].content_store 	misses[0] 	179641
scalar border_caches_scenario_3_links_network.node[0].content_store 	decision_yes[0] 	0
scalar border_caches_scenario_3_links_network.node[0].content_store 	decision_no[0] 	179641
scalar border_caches_scenario_3_links_network.node[1].core_layer 	interests[1] 	61825
scalar border_caches_scenario_3_links_network.node[1].core_layer 	data[1] 	61825
scalar border_caches_scenario_3_links_network.node[1].content_store 	p_hit[1] 	0
scalar border_caches_scenario_3_links_network.node[1].content_store 	hits[1] 	0
scalar border_caches_scenario_3_links_network.node[1].content_store 	misses[1] 	61825
scalar border_caches_scenario_3_links_network.node[1].content_store 	decision_yes[1] 	0
scalar border_caches_scenario_3_links_network.node[1].content_store 	decision_no[1] 	61825
scalar border_caches_scenario_3_links_network.node[2].core_layer 	interests[2] 	64652
scalar border_caches_scenario_3_links_network.node[2].core_layer 	data[2] 	32090
scalar border_caches_scenario_3_links_network.node[2].content_store 	p_hit[2] 	0.503650312442
scalar border_caches_scenario_3_links_network.node[2].content_store 	hits[2] 	32562
scalar border_caches_scenario_3_links_network.node[2].content_store 	misses[2] 	32090
scalar border_caches_scenario_3_links_network.node[2].content_store 	decision_yes[2] 	875
scalar border_caches_scenario_3_links_network.node[2].content_store 	decision_no[2] 	31215
scalar border_caches_scenario_3_links_network.node[3].core_layer 	interests[3] 	53164
scalar border_caches_scenario_3_links_network.node[3].core_layer 	data[3] 	34881
scalar border_caches_scenario_3_links_network.node[3].content_store 	p_hit[3] 	0.3438981265518
scalar border_caches_scenario_3_links_network.node[3].content_store 	hits[3] 	18283
scalar border_caches_scenario_3_links_network.node[3].content_store 	misses[3] 	34881
scalar border_caches_scenario_3_links_network.node[3].content_store 	decision_yes[3] 	9497
scalar border_caches_scenario_3_links_network.node[3].content_store 	decision_no[3] 	25384
scalar border_caches_scenario_3_links_network.node[4].core_layer 	interests[4] 	61825
scalar border_caches_scenario_3_links_network.node[4].core_layer 	repo_load[4] 	61825
scalar border_caches_scenario_3_links_network.node[4].core_layer 	data[4] 	0
scalar border_caches_scenario_3_links_network.node[4].content_store 	p_hit[4] 	0
scalar border_caches_scenario_3_links_network.node[4].content_store 	hits[4] 	0
scalar border_caches_scenario_3_links_network.node[4].content_store 	misses[4] 	61825
scalar border_caches_scenario_3_links_network.node[4].content_store 	decision_yes[4] 	0
scalar border_caches_scenario_3_links_network.node[4].content_store 	decision_no[4] 	61825
scalar border_caches_scenario_3_links_network.node[5].core_layer 	interests[5] 	32090
scalar border_caches_scenario_3_links_network.node[5].core_layer 	repo_load[5] 	32090
scalar border_caches_scenario_3_links_network.node[5].core_layer 	data[5] 	0
scalar border_caches_scenario_3_links_network.node[5].content_store 	p_hit[5] 	0
scalar border_caches_scenario_3_links_network.node[5].content_store 	hits[5] 	0
scalar border_caches_scenario_3_links_network.node[5].content_store 	misses[5] 	32090
scalar border_caches_scenario_3_links_network.node[5].content_store 	decision_yes[5] 	0
scalar border_caches_scenario_3_links_network.node[5].content_store 	decision_no[5] 	32090
scalar border_caches_scenario_3_links_network.node[6].core_layer 	interests[6] 	34881
scalar border_caches_scenario_3_links_network.node[6].core_layer 	repo_load[6] 	34881
scalar border_caches_scenario_3_links_network.node[6].core_layer 	data[6] 	0
scalar border_caches_scenario_3_links_network.node[6].content_store 	p_hit[6] 	0
scalar border_caches_scenario_3_links_network.node[6].content_store 	hits[6] 	0
scalar border_caches_scenario_3_links_network.node[6].content_store 	misses[6] 	34881
scalar border_caches_scenario_3_links_network.node[6].content_store 	decision_yes[6] 	0
scalar border_caches_scenario_3_links_network.node[6].content_store 	decision_no[6] 	34881
scalar border_caches_scenario_3_links_network.client[0] 	hdistance[0] 	1.0897679260303
scalar border_caches_scenario_3_links_network.client[0] 	downloads[0] 	179641
scalar border_caches_scenario_3_links_network.client[0] 	avg_time[0] 	0
scalar border_caches_scenario_3_links_network.client[0] 	interests_sent[0] 	179641
