version 2
run General-5681-20140423-20:55:34-461
attr D prob_cache
attr F nrr
attr R lru
attr a 1.2
attr configname General
attr csize 2
attr ctlg 10^3
attr datetime 20140423-20:55:34
attr experiment General
attr inifile omnetpp.ini
attr iterationvars "$net=simple_scenario, $rep=16, $priceratiovalue=8, $a=1.2, $ctlg=10^3, $F=nrr, $ttl=1000, $D=prob_cache, $R=lru, $csize=2"
attr iterationvars2 "$net=simple_scenario, $rep=16, $priceratiovalue=8, $a=1.2, $ctlg=10^3, $F=nrr, $ttl=1000, $D=prob_cache, $R=lru, $csize=2, $repetition=0"
attr measurement "$net=simple_scenario, $rep=16, $priceratiovalue=8, $a=1.2, $ctlg=10^3, $F=nrr, $ttl=1000, $D=prob_cache, $R=lru, $csize=2"
attr net simple_scenario
attr network networks.${net=simple_scenario}_network
attr priceratiovalue 8
attr processid 461
attr rep 16
attr repetition 0
attr replication #0
attr resultdir results
attr runnumber 5681
attr seedset 16
attr ttl 1000

scalar . 	a 	1.2
scalar . 	csize 	2
scalar . 	priceratiovalue 	8
scalar . 	rep 	16
scalar . 	ttl 	1000
scalar simple_scenario_network.content_distribution 	repo-0 	3
scalar simple_scenario_network.content_distribution 	repo-1 	4
scalar simple_scenario_network.content_distribution 	client-0 	0
scalar simple_scenario_network.content_distribution 	repo-0_card 	495
scalar simple_scenario_network.content_distribution 	repo-1_card 	505
scalar simple_scenario_network.statistics 	p_hit 	0.12178842704343
scalar simple_scenario_network.statistics 	interests 	90314
scalar simple_scenario_network.statistics 	data 	54279.8
scalar simple_scenario_network.statistics 	hdistance 	2.2010978459352
scalar simple_scenario_network.statistics 	avg_time 	0.00198554007
scalar simple_scenario_network.statistics 	downloads 	180171
scalar simple_scenario_network.statistics 	total_cost 	67719
scalar simple_scenario_network.node[0].core_layer 	interests[0] 	180171
scalar simple_scenario_network.node[0].core_layer 	data[0] 	146224
scalar simple_scenario_network.node[0].core_layer 	repo_int[0] 	125175
scalar simple_scenario_network.node[0].content_store 	p_hit[0] 	0.18841544976717
scalar simple_scenario_network.node[0].content_store 	hits[0] 	33947
scalar simple_scenario_network.node[0].content_store 	misses[0] 	146224
scalar simple_scenario_network.node[1].core_layer 	interests[1] 	64136
scalar simple_scenario_network.node[1].core_layer 	data[1] 	55988
scalar simple_scenario_network.node[1].content_store 	p_hit[1] 	0.12704253461395
scalar simple_scenario_network.node[1].content_store 	hits[1] 	8148
scalar simple_scenario_network.node[1].content_store 	misses[1] 	55988
scalar simple_scenario_network.node[2].core_layer 	interests[2] 	82088
scalar simple_scenario_network.node[2].core_layer 	data[2] 	69187
scalar simple_scenario_network.node[2].content_store 	p_hit[2] 	0.15716060812786
scalar simple_scenario_network.node[2].content_store 	hits[2] 	12901
scalar simple_scenario_network.node[2].content_store 	misses[2] 	69187
scalar simple_scenario_network.node[3].core_layer 	interests[3] 	55988
scalar simple_scenario_network.node[3].core_layer 	repo_load[3] 	55988
scalar simple_scenario_network.node[3].core_layer 	data[3] 	0
scalar simple_scenario_network.node[3].content_store 	p_hit[3] 	0
scalar simple_scenario_network.node[3].content_store 	hits[3] 	0
scalar simple_scenario_network.node[3].content_store 	misses[3] 	55988
scalar simple_scenario_network.node[4].core_layer 	interests[4] 	69187
scalar simple_scenario_network.node[4].core_layer 	repo_load[4] 	69187
scalar simple_scenario_network.node[4].core_layer 	data[4] 	0
scalar simple_scenario_network.node[4].content_store 	p_hit[4] 	0
scalar simple_scenario_network.node[4].content_store 	hits[4] 	0
scalar simple_scenario_network.node[4].content_store 	misses[4] 	69187
scalar simple_scenario_network.client[0] 	hdistance[0] 	2.2010978459352
scalar simple_scenario_network.client[0] 	downloads[0] 	180171
scalar simple_scenario_network.client[0] 	avg_time[0] 	0.00198554007
