version 2
run General-1-20150729-16:54:25-11223
attr C 2
attr D lce
attr F spr
attr R lru_repr
attr a 1
attr brates 0.3_0.7_1.5_2.5_3.5
attr configname General
attr ctlg 1e1
attr datetime 20150729-16:54:25
attr experiment General
attr inifile omnetpp.ini
attr iterationvars "$net=video_simple_scenario, $rep=0, $lambda=100, $a=1, $ctlg=1e1, $brates=0.3_0.7_1.5_2.5_3.5, $F=spr, $ttl=1000, $D=lce, $R=lru_repr, $proactiveprob=0.1, $C=2, $window=60, $variance=0.05, $mytime=10"
attr iterationvars2 "$net=video_simple_scenario, $rep=0, $lambda=100, $a=1, $ctlg=1e1, $brates=0.3_0.7_1.5_2.5_3.5, $F=spr, $ttl=1000, $D=lce, $R=lru_repr, $proactiveprob=0.1, $C=2, $window=60, $variance=0.05, $mytime=10, $repetition=0"
attr lambda 100
attr measurement "$net=video_simple_scenario, $rep=0, $lambda=100, $a=1, $ctlg=1e1, $brates=0.3_0.7_1.5_2.5_3.5, $F=spr, $ttl=1000, $D=lce, $R=lru_repr, $proactiveprob=0.1, $C=2, $window=60, $variance=0.05, $mytime=10"
attr mytime 10
attr net video_simple_scenario
attr network networks.${net=video_simple_scenario}_network
attr proactiveprob 0.1
attr processid 11223
attr rep 0
attr repetition 0
attr replication #0
attr resultdir results
attr runnumber 1
attr seedset 0
attr ttl 1000
attr variance 0.05
attr window 60

scalar . 	C 	2
scalar . 	a 	1
scalar . 	ctlg 	1e1
scalar . 	lambda 	100
scalar . 	mytime 	10
scalar . 	proactiveprob 	0.1
scalar . 	rep 	0
scalar . 	ttl 	1000
scalar . 	variance 	0.05
scalar . 	window 	60
scalar video_simple_scenario_network.content_distribution 	repo-0 	0
scalar video_simple_scenario_network.content_distribution 	client-0 	1
scalar video_simple_scenario_network.content_distribution 	repo-0_card 	10
scalar video_simple_scenario_network.content_distribution 	repo-0_price 	0
scalar video_simple_scenario_network.statistics 	stabilization_time 	36060
scalar video_simple_scenario_network.statistics 	p_hit 	0.69376479873717
scalar video_simple_scenario_network.statistics 	interests 	633.5
scalar video_simple_scenario_network.statistics 	data 	97
scalar video_simple_scenario_network.statistics 	hdistance 	0.21884498480243
scalar video_simple_scenario_network.statistics 	avg_time 	0
scalar video_simple_scenario_network.statistics 	downloads 	987
scalar video_simple_scenario_network.statistics 	total_cost 	0
scalar video_simple_scenario_network.statistics 	total_replicas 	10
scalar video_simple_scenario_network.statistics 	"representations_downloaded 0.484296:0.18541:0.129686:0.10537:0.0952381:" 	0
scalar video_simple_scenario_network.statistics 	"slots_per_representation 100:233:500:833:1167:" 	0
scalar video_simple_scenario_network.statistics 	inner_hit 	0.80344478216819
scalar video_simple_scenario_network.statistics 	execution_time 	81
scalar video_simple_scenario_network.node[0].core_layer 	interests[0] 	194
scalar video_simple_scenario_network.node[0].core_layer 	repo_load[0] 	194
scalar video_simple_scenario_network.node[0].core_layer 	data[0] 	0
scalar video_simple_scenario_network.node[0].core_layer 	slots_sent[face$o[1]->client[0]] 	0
scalar video_simple_scenario_network.node[0].core_layer 	slots_sent[face$o[2]->node[1]] 	52983
scalar video_simple_scenario_network.node[0].content_store 	p_hit[0] 	0
scalar video_simple_scenario_network.node[0].content_store 	hits[0] 	0
scalar video_simple_scenario_network.node[0].content_store 	misses[0] 	194
scalar video_simple_scenario_network.node[0].content_store 	decision_yes[0] 	0
scalar video_simple_scenario_network.node[0].content_store 	decision_no[0] 	194
scalar video_simple_scenario_network.node[0].content_store 	decision_ratio[0] 	0
scalar video_simple_scenario_network.node[0].content_store 	"representation_breakdown[0] 0:0:0:0:0:" 	0
scalar video_simple_scenario_network.node[1].core_layer 	interests[1] 	1073
scalar video_simple_scenario_network.node[1].core_layer 	data[1] 	194
scalar video_simple_scenario_network.node[1].core_layer 	slots_sent[face$o[1]->client[1]] 	350769
scalar video_simple_scenario_network.node[1].core_layer 	slots_sent[face$o[2]->node[0]] 	0
scalar video_simple_scenario_network.node[1].content_store 	p_hit[1] 	0.81919850885368
scalar video_simple_scenario_network.node[1].content_store 	hits[1] 	879
scalar video_simple_scenario_network.node[1].content_store 	misses[1] 	194
scalar video_simple_scenario_network.node[1].content_store 	decision_yes[1] 	194
scalar video_simple_scenario_network.node[1].content_store 	decision_no[1] 	0
scalar video_simple_scenario_network.node[1].content_store 	decision_ratio[1] 	1
scalar video_simple_scenario_network.node[1].content_store 	"representation_breakdown[1] 5:4:0:1:0:" 	0
scalar video_simple_scenario_network.node[1].proactive_component 	hdistance[1].proactive_component 	2
scalar video_simple_scenario_network.node[1].proactive_component 	downloads[1].proactive_component 	291250
scalar video_simple_scenario_network.node[1].proactive_component 	avg_time[1].proactive_component 	0
scalar video_simple_scenario_network.client[1] 	hdistance[1].real 	0.21884498480243
scalar video_simple_scenario_network.client[1] 	downloads[1].real 	987
scalar video_simple_scenario_network.client[1] 	avg_time[1].real 	0
