version 2
run General-9-20150311-18:59:38-28962
attr D lcd
attr F spr
attr R lru
attr a 0.7
attr configname General
attr datetime 20150311-18:59:38
attr experiment General
attr inifile omnetpp.ini
attr iterationvars "$net=abilene, $rep=0, $a=0.7, $F=spr, $ttl=1000, $D=lcd, $R=lru"
attr iterationvars2 "$net=abilene, $rep=0, $a=0.7, $F=spr, $ttl=1000, $D=lcd, $R=lru, $repetition=0"
attr measurement "$net=abilene, $rep=0, $a=0.7, $F=spr, $ttl=1000, $D=lcd, $R=lru"
attr net abilene
attr network networks.${net=abilene}_network
attr processid 28962
attr rep 0
attr repetition 0
attr replication #0
attr resultdir results
attr runnumber 9
attr seedset 0
attr ttl 1000

scalar . 	a 	0.7
scalar . 	rep 	0
scalar . 	ttl 	1000
scalar abilene_network.content_distribution 	repo-0 	5
scalar abilene_network.content_distribution 	client-0 	8
scalar abilene_network.content_distribution 	client-1 	9
scalar abilene_network.content_distribution 	client-2 	5
scalar abilene_network.content_distribution 	client-3 	0
scalar abilene_network.content_distribution 	client-4 	1
scalar abilene_network.content_distribution 	client-5 	7
scalar abilene_network.content_distribution 	client-6 	6
scalar abilene_network.content_distribution 	client-7 	2
scalar abilene_network.content_distribution 	client-8 	4
scalar abilene_network.content_distribution 	client-9 	10
scalar abilene_network.content_distribution 	client-10 	3
scalar abilene_network.content_distribution 	repo-0_card 	10000
scalar abilene_network.content_distribution 	repo-0_price 	0
scalar abilene_network.statistics 	stabilization_time 	4603.1
scalar abilene_network.statistics 	p_hit 	0.063310582907093
scalar abilene_network.statistics 	interests 	5740.8181818182
scalar abilene_network.statistics 	data 	3930.5454545455
scalar abilene_network.statistics 	hdistance 	2.9707091563891
scalar abilene_network.statistics 	avg_time 	0.012259099639
scalar abilene_network.statistics 	downloads 	19912
scalar abilene_network.statistics 	total_cost 	0
scalar abilene_network.statistics 	total_replicas 	10000
scalar abilene_network.statistics 	inner_hit 	0.20083366813982
scalar abilene_network.node[0].core_layer 	interests[0] 	1859
scalar abilene_network.node[0].core_layer 	data[0] 	1464
scalar abilene_network.node[0].core_layer 	repo_int[0] 	15913
scalar abilene_network.node[0].content_store 	p_hit[0] 	0.21247982786444
scalar abilene_network.node[0].content_store 	hits[0] 	395
scalar abilene_network.node[0].content_store 	misses[0] 	1464
scalar abilene_network.node[0].content_store 	decision_yes[0] 	41
scalar abilene_network.node[0].content_store 	decision_no[0] 	1423
scalar abilene_network.node[0].content_store 	decision_ratio[0] 	0.028005464480874
scalar abilene_network.node[1].core_layer 	interests[1] 	4722
scalar abilene_network.node[1].core_layer 	data[1] 	4298
scalar abilene_network.node[1].content_store 	p_hit[1] 	0.089368911478187
scalar abilene_network.node[1].content_store 	hits[1] 	422
scalar abilene_network.node[1].content_store 	misses[1] 	4300
scalar abilene_network.node[1].content_store 	decision_yes[1] 	69
scalar abilene_network.node[1].content_store 	decision_no[1] 	4229
scalar abilene_network.node[1].content_store 	decision_ratio[1] 	0.016053978594695
scalar abilene_network.node[2].core_layer 	interests[2] 	6142
scalar abilene_network.node[2].core_layer 	data[2] 	5762
scalar abilene_network.node[2].content_store 	p_hit[2] 	0.061869098013676
scalar abilene_network.node[2].content_store 	hits[2] 	380
scalar abilene_network.node[2].content_store 	misses[2] 	5762
scalar abilene_network.node[2].content_store 	decision_yes[2] 	81
scalar abilene_network.node[2].content_store 	decision_no[2] 	5681
scalar abilene_network.node[2].content_store 	decision_ratio[2] 	0.014057618882333
scalar abilene_network.node[3].core_layer 	interests[3] 	7623
scalar abilene_network.node[3].core_layer 	data[3] 	7231
scalar abilene_network.node[3].content_store 	p_hit[3] 	0.051423324150597
scalar abilene_network.node[3].content_store 	hits[3] 	392
scalar abilene_network.node[3].content_store 	misses[3] 	7231
scalar abilene_network.node[3].content_store 	decision_yes[3] 	97
scalar abilene_network.node[3].content_store 	decision_no[3] 	7134
scalar abilene_network.node[3].content_store 	decision_ratio[3] 	0.013414465495782
scalar abilene_network.node[4].core_layer 	interests[4] 	9063
scalar abilene_network.node[4].core_layer 	data[4] 	8716
scalar abilene_network.node[4].content_store 	p_hit[4] 	0.038287542756262
scalar abilene_network.node[4].content_store 	hits[4] 	347
scalar abilene_network.node[4].content_store 	misses[4] 	8716
scalar abilene_network.node[4].content_store 	decision_yes[4] 	167
scalar abilene_network.node[4].content_store 	decision_no[4] 	8549
scalar abilene_network.node[4].content_store 	decision_ratio[4] 	0.019160165213401
scalar abilene_network.node[5].core_layer 	interests[5] 	16248
scalar abilene_network.node[5].core_layer 	repo_load[5] 	15913
scalar abilene_network.node[5].core_layer 	data[5] 	0
scalar abilene_network.node[5].content_store 	p_hit[5] 	0.02061792220581
scalar abilene_network.node[5].content_store 	hits[5] 	335
scalar abilene_network.node[5].content_store 	misses[5] 	15913
scalar abilene_network.node[5].content_store 	decision_yes[5] 	15913
scalar abilene_network.node[5].content_store 	decision_no[5] 	0
scalar abilene_network.node[5].content_store 	decision_ratio[5] 	1
scalar abilene_network.node[6].core_layer 	interests[6] 	6066
scalar abilene_network.node[6].core_layer 	data[6] 	5728
scalar abilene_network.node[6].content_store 	p_hit[6] 	0.055720408836136
scalar abilene_network.node[6].content_store 	hits[6] 	338
scalar abilene_network.node[6].content_store 	misses[6] 	5728
scalar abilene_network.node[6].content_store 	decision_yes[6] 	109
scalar abilene_network.node[6].content_store 	decision_no[6] 	5619
scalar abilene_network.node[6].content_store 	decision_ratio[6] 	0.019029329608939
scalar abilene_network.node[7].core_layer 	interests[7] 	4615
scalar abilene_network.node[7].core_layer 	data[7] 	4261
scalar abilene_network.node[7].content_store 	p_hit[7] 	0.07670639219935
scalar abilene_network.node[7].content_store 	hits[7] 	354
scalar abilene_network.node[7].content_store 	misses[7] 	4261
scalar abilene_network.node[7].content_store 	decision_yes[7] 	72
scalar abilene_network.node[7].content_store 	decision_no[7] 	4189
scalar abilene_network.node[7].content_store 	decision_ratio[7] 	0.016897441915043
scalar abilene_network.node[8].core_layer 	interests[8] 	3189
scalar abilene_network.node[8].core_layer 	data[8] 	2813
scalar abilene_network.node[8].content_store 	p_hit[8] 	0.11790529946692
scalar abilene_network.node[8].content_store 	hits[8] 	376
scalar abilene_network.node[8].content_store 	misses[8] 	2813
scalar abilene_network.node[8].content_store 	decision_yes[8] 	43
scalar abilene_network.node[8].content_store 	decision_no[8] 	2770
scalar abilene_network.node[8].content_store 	decision_ratio[8] 	0.015286171347316
scalar abilene_network.node[9].core_layer 	interests[9] 	1801
scalar abilene_network.node[9].core_layer 	data[9] 	1463
scalar abilene_network.node[9].content_store 	p_hit[9] 	0.18767351471405
scalar abilene_network.node[9].content_store 	hits[9] 	338
scalar abilene_network.node[9].content_store 	misses[9] 	1463
scalar abilene_network.node[9].content_store 	decision_yes[9] 	27
scalar abilene_network.node[9].content_store 	decision_no[9] 	1436
scalar abilene_network.node[9].content_store 	decision_ratio[9] 	0.018455228981545
scalar abilene_network.node[10].core_layer 	interests[10] 	1821
scalar abilene_network.node[10].core_layer 	data[10] 	1500
scalar abilene_network.node[10].content_store 	p_hit[10] 	0.17627677100494
scalar abilene_network.node[10].content_store 	hits[10] 	321
scalar abilene_network.node[10].content_store 	misses[10] 	1500
scalar abilene_network.node[10].content_store 	decision_yes[10] 	51
scalar abilene_network.node[10].content_store 	decision_no[10] 	1449
scalar abilene_network.node[10].content_store 	decision_ratio[10] 	0.034
scalar abilene_network.client[0] 	hdistance[0] 	4.5174825174825
scalar abilene_network.client[0] 	downloads[0] 	1859
scalar abilene_network.client[0] 	avg_time[0] 	0.023825840371
scalar abilene_network.client[1] 	hdistance[1] 	3.9186112692089
scalar abilene_network.client[1] 	downloads[1] 	1757
scalar abilene_network.client[1] 	avg_time[1] 	0.015989362627
scalar abilene_network.client[2] 	hdistance[2] 	3.252169197397
scalar abilene_network.client[2] 	downloads[2] 	1844
scalar abilene_network.client[2] 	avg_time[2] 	0.011652006058
scalar abilene_network.client[3] 	hdistance[3] 	2.4438473938743
scalar abilene_network.client[3] 	downloads[3] 	1861
scalar abilene_network.client[3] 	avg_time[3] 	0.007697753439
scalar abilene_network.client[4] 	hdistance[4] 	1.7063318777293
scalar abilene_network.client[4] 	downloads[4] 	1832
scalar abilene_network.client[4] 	avg_time[4] 	0.006597423129
scalar abilene_network.client[5] 	hdistance[5] 	0.96729490022173
scalar abilene_network.client[5] 	downloads[5] 	1804
scalar abilene_network.client[5] 	avg_time[5] 	0
scalar abilene_network.client[6] 	hdistance[6] 	1.6891966759003
scalar abilene_network.client[6] 	downloads[6] 	1805
scalar abilene_network.client[6] 	avg_time[6] 	0.001875789025
scalar abilene_network.client[7] 	hdistance[7] 	2.4295227524972
scalar abilene_network.client[7] 	downloads[7] 	1802
scalar abilene_network.client[7] 	avg_time[7] 	0.006588245947
scalar abilene_network.client[8] 	hdistance[8] 	3.1187717265353
scalar abilene_network.client[8] 	downloads[8] 	1726
scalar abilene_network.client[8] 	avg_time[8] 	0.01230041672
scalar abilene_network.client[9] 	hdistance[9] 	3.9278178789561
scalar abilene_network.client[9] 	downloads[9] 	1801
scalar abilene_network.client[9] 	avg_time[9] 	0.024240787999
scalar abilene_network.client[10] 	hdistance[10] 	4.7067545304778
scalar abilene_network.client[10] 	downloads[10] 	1821
scalar abilene_network.client[10] 	avg_time[10] 	0.024082470717
