version 2
run General-1652-20140425-16:28:14-14200
attr D fix0.1
attr F nrr
attr R lru
attr a 1.2
attr configname General
attr csize 30
attr ctlg 10^3
attr datetime 20140425-16:28:14
attr experiment General
attr inifile omnetpp.ini
attr iterationvars "$net=one_cache_scenario, $rep=14, $priceratiovalue=8, $a=1.2, $ctlg=10^3, $F=nrr, $ttl=1000, $D=fix0.1, $R=lru, $csize=30"
attr iterationvars2 "$net=one_cache_scenario, $rep=14, $priceratiovalue=8, $a=1.2, $ctlg=10^3, $F=nrr, $ttl=1000, $D=fix0.1, $R=lru, $csize=30, $repetition=0"
attr measurement "$net=one_cache_scenario, $rep=14, $priceratiovalue=8, $a=1.2, $ctlg=10^3, $F=nrr, $ttl=1000, $D=fix0.1, $R=lru, $csize=30"
attr net one_cache_scenario
attr network networks.${net=one_cache_scenario}_network
attr priceratiovalue 8
attr processid 14200
attr rep 14
attr repetition 0
attr replication #0
attr resultdir results
attr runnumber 1652
attr seedset 14
attr ttl 1000

scalar . 	a 	1.2
scalar . 	csize 	30
scalar . 	priceratiovalue 	8
scalar . 	rep 	14
scalar . 	ttl 	1000
scalar one_cache_scenario_network.content_distribution 	repo-0 	3
scalar one_cache_scenario_network.content_distribution 	repo-1 	4
scalar one_cache_scenario_network.content_distribution 	client-0 	0
scalar one_cache_scenario_network.content_distribution 	repo-0_card 	497
scalar one_cache_scenario_network.content_distribution 	repo-1_card 	503
scalar one_cache_scenario_network.statistics 	p_hit 	0.38431494822522
scalar one_cache_scenario_network.statistics 	interests 	60937
scalar one_cache_scenario_network.statistics 	data 	25012
scalar one_cache_scenario_network.statistics 	hdistance 	0.69622825330549
scalar one_cache_scenario_network.statistics 	avg_time 	0
scalar one_cache_scenario_network.statistics 	downloads 	179625
scalar one_cache_scenario_network.statistics 	total_cost 	28311
scalar one_cache_scenario_network.statistics 	interests_sent 	179625
scalar one_cache_scenario_network.node[0].core_layer 	interests[0] 	179625
scalar one_cache_scenario_network.node[0].core_layer 	data[0] 	62530
scalar one_cache_scenario_network.node[0].core_layer 	repo_int[0] 	62530
scalar one_cache_scenario_network.node[0].content_store 	p_hit[0] 	0.65188587334725
scalar one_cache_scenario_network.node[0].content_store 	hits[0] 	117095
scalar one_cache_scenario_network.node[0].content_store 	misses[0] 	62530
scalar one_cache_scenario_network.node[0].content_store 	decision_yes[0] 	6280
scalar one_cache_scenario_network.node[0].content_store 	decision_no[0] 	56250
scalar one_cache_scenario_network.node[1].core_layer 	interests[1] 	35062
scalar one_cache_scenario_network.node[1].core_layer 	data[1] 	35062
scalar one_cache_scenario_network.node[1].content_store 	p_hit[1] 	0
scalar one_cache_scenario_network.node[1].content_store 	hits[1] 	0
scalar one_cache_scenario_network.node[1].content_store 	misses[1] 	35062
scalar one_cache_scenario_network.node[1].content_store 	decision_yes[1] 	0
scalar one_cache_scenario_network.node[1].content_store 	decision_no[1] 	35062
scalar one_cache_scenario_network.node[2].core_layer 	interests[2] 	27468
scalar one_cache_scenario_network.node[2].core_layer 	data[2] 	27468
scalar one_cache_scenario_network.node[2].content_store 	p_hit[2] 	0
scalar one_cache_scenario_network.node[2].content_store 	hits[2] 	0
scalar one_cache_scenario_network.node[2].content_store 	misses[2] 	27468
scalar one_cache_scenario_network.node[2].content_store 	decision_yes[2] 	0
scalar one_cache_scenario_network.node[2].content_store 	decision_no[2] 	27468
scalar one_cache_scenario_network.node[3].core_layer 	interests[3] 	35062
scalar one_cache_scenario_network.node[3].core_layer 	repo_load[3] 	35062
scalar one_cache_scenario_network.node[3].core_layer 	data[3] 	0
scalar one_cache_scenario_network.node[3].content_store 	p_hit[3] 	0
scalar one_cache_scenario_network.node[3].content_store 	hits[3] 	0
scalar one_cache_scenario_network.node[3].content_store 	misses[3] 	35062
scalar one_cache_scenario_network.node[3].content_store 	decision_yes[3] 	0
scalar one_cache_scenario_network.node[3].content_store 	decision_no[3] 	35062
scalar one_cache_scenario_network.node[4].core_layer 	interests[4] 	27468
scalar one_cache_scenario_network.node[4].core_layer 	repo_load[4] 	27468
scalar one_cache_scenario_network.node[4].core_layer 	data[4] 	0
scalar one_cache_scenario_network.node[4].content_store 	p_hit[4] 	0
scalar one_cache_scenario_network.node[4].content_store 	hits[4] 	0
scalar one_cache_scenario_network.node[4].content_store 	misses[4] 	27468
scalar one_cache_scenario_network.node[4].content_store 	decision_yes[4] 	0
scalar one_cache_scenario_network.node[4].content_store 	decision_no[4] 	27468
scalar one_cache_scenario_network.client[0] 	hdistance[0] 	0.69622825330549
scalar one_cache_scenario_network.client[0] 	downloads[0] 	179625
scalar one_cache_scenario_network.client[0] 	avg_time[0] 	0
scalar one_cache_scenario_network.client[0] 	interests_sent[0] 	179625
