version 2
run General-1995-20140422-20:21:18-14009
attr D fix0.01
attr F nrr
attr R lru
attr a 0
attr configname General
attr csize 10
attr ctlg 10^3
attr datetime 20140422-20:21:18
attr experiment General
attr inifile omnetpp.ini
attr iterationvars "$net=simple_scenario, $rep=17, $priceratiovalue=7, $a=0, $ctlg=10^3, $F=nrr, $ttl=1000, $D=fix0.01, $R=lru, $csize=10"
attr iterationvars2 "$net=simple_scenario, $rep=17, $priceratiovalue=7, $a=0, $ctlg=10^3, $F=nrr, $ttl=1000, $D=fix0.01, $R=lru, $csize=10, $repetition=0"
attr measurement "$net=simple_scenario, $rep=17, $priceratiovalue=7, $a=0, $ctlg=10^3, $F=nrr, $ttl=1000, $D=fix0.01, $R=lru, $csize=10"
attr net simple_scenario
attr network networks.${net=simple_scenario}_network
attr priceratiovalue 7
attr processid 14009
attr rep 17
attr repetition 0
attr replication #0
attr resultdir results
attr runnumber 1995
attr seedset 17
attr ttl 1000

scalar . 	a 	0
scalar . 	csize 	10
scalar . 	priceratiovalue 	7
scalar . 	rep 	17
scalar . 	ttl 	1000
scalar simple_scenario_network.content_distribution 	repo-0 	3
scalar simple_scenario_network.content_distribution 	repo-1 	4
scalar simple_scenario_network.content_distribution 	client-0 	0
scalar simple_scenario_network.content_distribution 	repo-0_card 	481
scalar simple_scenario_network.content_distribution 	repo-1_card 	519
scalar simple_scenario_network.statistics 	p_hit 	0.010008200668091
scalar simple_scenario_network.statistics 	interests 	106332.8
scalar simple_scenario_network.statistics 	data 	70416.2
scalar simple_scenario_network.statistics 	hdistance 	2.9309177372022
scalar simple_scenario_network.statistics 	avg_time 	0.001999752116
scalar simple_scenario_network.statistics 	downloads 	179583
scalar simple_scenario_network.statistics 	total_cost 	89811
scalar simple_scenario_network.node[0].core_layer 	interests[0] 	179583
scalar simple_scenario_network.node[0].core_layer 	data[0] 	177819
scalar simple_scenario_network.node[0].core_layer 	repo_int[0] 	174262
scalar simple_scenario_network.node[0].content_store 	p_hit[0] 	0.0098227560515194
scalar simple_scenario_network.node[0].content_store 	hits[0] 	1764
scalar simple_scenario_network.node[0].content_store 	misses[0] 	177819
scalar simple_scenario_network.node[1].core_layer 	interests[1] 	85356
scalar simple_scenario_network.node[1].core_layer 	data[1] 	83556
scalar simple_scenario_network.node[1].content_store 	p_hit[1] 	0.021088148460565
scalar simple_scenario_network.node[1].content_store 	hits[1] 	1800
scalar simple_scenario_network.node[1].content_store 	misses[1] 	83556
scalar simple_scenario_network.node[2].core_layer 	interests[2] 	92463
scalar simple_scenario_network.node[2].core_layer 	data[2] 	90706
scalar simple_scenario_network.node[2].content_store 	p_hit[2] 	0.019002195472784
scalar simple_scenario_network.node[2].content_store 	hits[2] 	1757
scalar simple_scenario_network.node[2].content_store 	misses[2] 	90706
scalar simple_scenario_network.node[3].core_layer 	interests[3] 	83556
scalar simple_scenario_network.node[3].core_layer 	repo_load[3] 	83556
scalar simple_scenario_network.node[3].core_layer 	data[3] 	0
scalar simple_scenario_network.node[3].content_store 	p_hit[3] 	0
scalar simple_scenario_network.node[3].content_store 	hits[3] 	0
scalar simple_scenario_network.node[3].content_store 	misses[3] 	83556
scalar simple_scenario_network.node[4].core_layer 	interests[4] 	90706
scalar simple_scenario_network.node[4].core_layer 	repo_load[4] 	90706
scalar simple_scenario_network.node[4].core_layer 	data[4] 	0
scalar simple_scenario_network.node[4].content_store 	p_hit[4] 	0
scalar simple_scenario_network.node[4].content_store 	hits[4] 	0
scalar simple_scenario_network.node[4].content_store 	misses[4] 	90706
scalar simple_scenario_network.client[0] 	hdistance[0] 	2.9309177372022
scalar simple_scenario_network.client[0] 	downloads[0] 	179583
scalar simple_scenario_network.client[0] 	avg_time[0] 	0.001999752116
