version 2
run General-2-20150722-12:17:08-21295
attr C 1e4
attr D lce
attr F spr
attr R lru
attr a 1
attr brates 1
attr configname General
attr ctlg 1e6
attr datetime 20150722-12:17:08
attr experiment General
attr inifile omnetpp.ini
attr iterationvars "$net=barabasi_100nodes, $rep=2, $lambda=100, $a=1, $ctlg=1e6, $brates=1, $F=spr, $ttl=1000, $D=lce, $R=lru, $C=1e4, $window=60, $variance=0.05, $mytime=1800"
attr iterationvars2 "$net=barabasi_100nodes, $rep=2, $lambda=100, $a=1, $ctlg=1e6, $brates=1, $F=spr, $ttl=1000, $D=lce, $R=lru, $C=1e4, $window=60, $variance=0.05, $mytime=1800, $repetition=0"
attr lambda 100
attr measurement "$net=barabasi_100nodes, $rep=2, $lambda=100, $a=1, $ctlg=1e6, $brates=1, $F=spr, $ttl=1000, $D=lce, $R=lru, $C=1e4, $window=60, $variance=0.05, $mytime=1800"
attr mytime 1800
attr net barabasi_100nodes
attr network networks.${net=barabasi_100nodes}_network
attr processid 21295
attr rep 2
attr repetition 0
attr replication #0
attr resultdir results
attr runnumber 2
attr seedset 2
attr ttl 1000
attr variance 0.05
attr window 60

scalar . 	C 	1e4
scalar . 	a 	1
scalar . 	brates 	1
scalar . 	ctlg 	1e6
scalar . 	lambda 	100
scalar . 	mytime 	1800
scalar . 	rep 	2
scalar . 	ttl 	1000
scalar . 	variance 	0.05
scalar . 	window 	60
scalar barabasi_100nodes_network.content_distribution 	repo-0 	47
scalar barabasi_100nodes_network.content_distribution 	repo-1 	68
scalar barabasi_100nodes_network.content_distribution 	repo-2 	25
scalar barabasi_100nodes_network.content_distribution 	repo-3 	67
scalar barabasi_100nodes_network.content_distribution 	repo-4 	83
scalar barabasi_100nodes_network.content_distribution 	repo-5 	23
scalar barabasi_100nodes_network.content_distribution 	repo-6 	92
scalar barabasi_100nodes_network.content_distribution 	repo-7 	57
scalar barabasi_100nodes_network.content_distribution 	repo-8 	14
scalar barabasi_100nodes_network.content_distribution 	repo-9 	72
scalar barabasi_100nodes_network.content_distribution 	repo-10 	89
scalar barabasi_100nodes_network.content_distribution 	repo-11 	42
scalar barabasi_100nodes_network.content_distribution 	repo-12 	90
scalar barabasi_100nodes_network.content_distribution 	repo-13 	8
scalar barabasi_100nodes_network.content_distribution 	repo-14 	39
scalar barabasi_100nodes_network.content_distribution 	repo-15 	48
scalar barabasi_100nodes_network.content_distribution 	repo-16 	7
scalar barabasi_100nodes_network.content_distribution 	repo-17 	44
scalar barabasi_100nodes_network.content_distribution 	repo-18 	0
scalar barabasi_100nodes_network.content_distribution 	repo-19 	75
scalar barabasi_100nodes_network.content_distribution 	repo-20 	55
scalar barabasi_100nodes_network.content_distribution 	repo-21 	6
scalar barabasi_100nodes_network.content_distribution 	repo-22 	19
scalar barabasi_100nodes_network.content_distribution 	repo-23 	60
scalar barabasi_100nodes_network.content_distribution 	repo-24 	63
scalar barabasi_100nodes_network.content_distribution 	repo-25 	69
scalar barabasi_100nodes_network.content_distribution 	repo-26 	56
scalar barabasi_100nodes_network.content_distribution 	repo-27 	24
scalar barabasi_100nodes_network.content_distribution 	repo-28 	53
scalar barabasi_100nodes_network.content_distribution 	repo-29 	61
scalar barabasi_100nodes_network.content_distribution 	repo-30 	64
scalar barabasi_100nodes_network.content_distribution 	repo-31 	34
scalar barabasi_100nodes_network.content_distribution 	repo-32 	73
scalar barabasi_100nodes_network.content_distribution 	repo-33 	78
scalar barabasi_100nodes_network.content_distribution 	repo-34 	38
scalar barabasi_100nodes_network.content_distribution 	repo-35 	4
scalar barabasi_100nodes_network.content_distribution 	repo-36 	9
scalar barabasi_100nodes_network.content_distribution 	repo-37 	87
scalar barabasi_100nodes_network.content_distribution 	repo-38 	99
scalar barabasi_100nodes_network.content_distribution 	repo-39 	1
scalar barabasi_100nodes_network.content_distribution 	repo-40 	16
scalar barabasi_100nodes_network.content_distribution 	repo-41 	31
scalar barabasi_100nodes_network.content_distribution 	repo-42 	93
scalar barabasi_100nodes_network.content_distribution 	repo-43 	71
scalar barabasi_100nodes_network.content_distribution 	repo-44 	10
scalar barabasi_100nodes_network.content_distribution 	repo-45 	35
scalar barabasi_100nodes_network.content_distribution 	repo-46 	96
scalar barabasi_100nodes_network.content_distribution 	repo-47 	21
scalar barabasi_100nodes_network.content_distribution 	repo-48 	97
scalar barabasi_100nodes_network.content_distribution 	repo-49 	91
scalar barabasi_100nodes_network.content_distribution 	repo-50 	27
scalar barabasi_100nodes_network.content_distribution 	repo-51 	33
scalar barabasi_100nodes_network.content_distribution 	repo-52 	30
scalar barabasi_100nodes_network.content_distribution 	repo-53 	81
scalar barabasi_100nodes_network.content_distribution 	repo-54 	2
scalar barabasi_100nodes_network.content_distribution 	repo-55 	50
scalar barabasi_100nodes_network.content_distribution 	repo-56 	18
scalar barabasi_100nodes_network.content_distribution 	repo-57 	58
scalar barabasi_100nodes_network.content_distribution 	repo-58 	12
scalar barabasi_100nodes_network.content_distribution 	repo-59 	76
scalar barabasi_100nodes_network.content_distribution 	repo-60 	20
scalar barabasi_100nodes_network.content_distribution 	repo-61 	15
scalar barabasi_100nodes_network.content_distribution 	repo-62 	59
scalar barabasi_100nodes_network.content_distribution 	repo-63 	43
scalar barabasi_100nodes_network.content_distribution 	repo-64 	54
scalar barabasi_100nodes_network.content_distribution 	repo-65 	77
scalar barabasi_100nodes_network.content_distribution 	repo-66 	3
scalar barabasi_100nodes_network.content_distribution 	repo-67 	29
scalar barabasi_100nodes_network.content_distribution 	repo-68 	79
scalar barabasi_100nodes_network.content_distribution 	repo-69 	70
scalar barabasi_100nodes_network.content_distribution 	repo-70 	52
scalar barabasi_100nodes_network.content_distribution 	repo-71 	41
scalar barabasi_100nodes_network.content_distribution 	repo-72 	26
scalar barabasi_100nodes_network.content_distribution 	repo-73 	62
scalar barabasi_100nodes_network.content_distribution 	repo-74 	86
scalar barabasi_100nodes_network.content_distribution 	repo-75 	98
scalar barabasi_100nodes_network.content_distribution 	repo-76 	17
scalar barabasi_100nodes_network.content_distribution 	repo-77 	5
scalar barabasi_100nodes_network.content_distribution 	repo-78 	49
scalar barabasi_100nodes_network.content_distribution 	repo-79 	37
scalar barabasi_100nodes_network.content_distribution 	repo-80 	85
scalar barabasi_100nodes_network.content_distribution 	repo-81 	51
scalar barabasi_100nodes_network.content_distribution 	repo-82 	36
scalar barabasi_100nodes_network.content_distribution 	repo-83 	82
scalar barabasi_100nodes_network.content_distribution 	repo-84 	28
scalar barabasi_100nodes_network.content_distribution 	repo-85 	32
scalar barabasi_100nodes_network.content_distribution 	repo-86 	95
scalar barabasi_100nodes_network.content_distribution 	repo-87 	45
scalar barabasi_100nodes_network.content_distribution 	repo-88 	40
scalar barabasi_100nodes_network.content_distribution 	repo-89 	13
scalar barabasi_100nodes_network.content_distribution 	repo-90 	80
scalar barabasi_100nodes_network.content_distribution 	repo-91 	46
scalar barabasi_100nodes_network.content_distribution 	repo-92 	11
scalar barabasi_100nodes_network.content_distribution 	repo-93 	94
scalar barabasi_100nodes_network.content_distribution 	repo-94 	22
scalar barabasi_100nodes_network.content_distribution 	repo-95 	66
scalar barabasi_100nodes_network.content_distribution 	repo-96 	88
scalar barabasi_100nodes_network.content_distribution 	repo-97 	84
scalar barabasi_100nodes_network.content_distribution 	repo-98 	74
scalar barabasi_100nodes_network.content_distribution 	repo-99 	65
scalar barabasi_100nodes_network.content_distribution 	client-0 	85
scalar barabasi_100nodes_network.content_distribution 	client-1 	89
scalar barabasi_100nodes_network.content_distribution 	client-2 	52
scalar barabasi_100nodes_network.content_distribution 	client-3 	21
scalar barabasi_100nodes_network.content_distribution 	client-4 	37
scalar barabasi_100nodes_network.content_distribution 	client-5 	25
scalar barabasi_100nodes_network.content_distribution 	client-6 	68
scalar barabasi_100nodes_network.content_distribution 	client-7 	29
scalar barabasi_100nodes_network.content_distribution 	client-8 	22
scalar barabasi_100nodes_network.content_distribution 	client-9 	32
scalar barabasi_100nodes_network.content_distribution 	client-10 	63
scalar barabasi_100nodes_network.content_distribution 	client-11 	86
scalar barabasi_100nodes_network.content_distribution 	client-12 	98
scalar barabasi_100nodes_network.content_distribution 	client-13 	10
scalar barabasi_100nodes_network.content_distribution 	client-14 	77
scalar barabasi_100nodes_network.content_distribution 	client-15 	35
scalar barabasi_100nodes_network.content_distribution 	client-16 	33
scalar barabasi_100nodes_network.content_distribution 	client-17 	38
scalar barabasi_100nodes_network.content_distribution 	client-18 	80
scalar barabasi_100nodes_network.content_distribution 	client-19 	23
scalar barabasi_100nodes_network.content_distribution 	client-20 	0
scalar barabasi_100nodes_network.content_distribution 	client-21 	82
scalar barabasi_100nodes_network.content_distribution 	client-22 	73
scalar barabasi_100nodes_network.content_distribution 	client-23 	6
scalar barabasi_100nodes_network.content_distribution 	client-24 	17
scalar barabasi_100nodes_network.content_distribution 	client-25 	2
scalar barabasi_100nodes_network.content_distribution 	client-26 	14
scalar barabasi_100nodes_network.content_distribution 	client-27 	46
scalar barabasi_100nodes_network.content_distribution 	client-28 	66
scalar barabasi_100nodes_network.content_distribution 	client-29 	31
scalar barabasi_100nodes_network.content_distribution 	client-30 	8
scalar barabasi_100nodes_network.content_distribution 	client-31 	92
scalar barabasi_100nodes_network.content_distribution 	client-32 	41
scalar barabasi_100nodes_network.content_distribution 	client-33 	26
scalar barabasi_100nodes_network.content_distribution 	client-34 	18
scalar barabasi_100nodes_network.content_distribution 	client-35 	84
scalar barabasi_100nodes_network.content_distribution 	client-36 	55
scalar barabasi_100nodes_network.content_distribution 	client-37 	28
scalar barabasi_100nodes_network.content_distribution 	client-38 	79
scalar barabasi_100nodes_network.content_distribution 	client-39 	45
scalar barabasi_100nodes_network.content_distribution 	client-40 	97
scalar barabasi_100nodes_network.content_distribution 	client-41 	64
scalar barabasi_100nodes_network.content_distribution 	client-42 	1
scalar barabasi_100nodes_network.content_distribution 	client-43 	24
scalar barabasi_100nodes_network.content_distribution 	client-44 	58
scalar barabasi_100nodes_network.content_distribution 	client-45 	36
scalar barabasi_100nodes_network.content_distribution 	client-46 	42
scalar barabasi_100nodes_network.content_distribution 	client-47 	47
scalar barabasi_100nodes_network.content_distribution 	client-48 	43
scalar barabasi_100nodes_network.content_distribution 	client-49 	72
scalar barabasi_100nodes_network.content_distribution 	client-50 	87
scalar barabasi_100nodes_network.content_distribution 	client-51 	51
scalar barabasi_100nodes_network.content_distribution 	client-52 	27
scalar barabasi_100nodes_network.content_distribution 	client-53 	78
scalar barabasi_100nodes_network.content_distribution 	client-54 	61
scalar barabasi_100nodes_network.content_distribution 	client-55 	30
scalar barabasi_100nodes_network.content_distribution 	client-56 	76
scalar barabasi_100nodes_network.content_distribution 	client-57 	57
scalar barabasi_100nodes_network.content_distribution 	client-58 	59
scalar barabasi_100nodes_network.content_distribution 	client-59 	88
scalar barabasi_100nodes_network.content_distribution 	client-60 	50
scalar barabasi_100nodes_network.content_distribution 	client-61 	81
scalar barabasi_100nodes_network.content_distribution 	client-62 	4
scalar barabasi_100nodes_network.content_distribution 	client-63 	93
scalar barabasi_100nodes_network.content_distribution 	client-64 	75
scalar barabasi_100nodes_network.content_distribution 	client-65 	95
scalar barabasi_100nodes_network.content_distribution 	client-66 	3
scalar barabasi_100nodes_network.content_distribution 	client-67 	69
scalar barabasi_100nodes_network.content_distribution 	client-68 	62
scalar barabasi_100nodes_network.content_distribution 	client-69 	60
scalar barabasi_100nodes_network.content_distribution 	client-70 	44
scalar barabasi_100nodes_network.content_distribution 	client-71 	13
scalar barabasi_100nodes_network.content_distribution 	client-72 	96
scalar barabasi_100nodes_network.content_distribution 	client-73 	54
scalar barabasi_100nodes_network.content_distribution 	client-74 	65
scalar barabasi_100nodes_network.content_distribution 	client-75 	48
scalar barabasi_100nodes_network.content_distribution 	client-76 	94
scalar barabasi_100nodes_network.content_distribution 	client-77 	91
scalar barabasi_100nodes_network.content_distribution 	client-78 	74
scalar barabasi_100nodes_network.content_distribution 	client-79 	49
scalar barabasi_100nodes_network.content_distribution 	client-80 	40
scalar barabasi_100nodes_network.content_distribution 	client-81 	53
scalar barabasi_100nodes_network.content_distribution 	client-82 	71
scalar barabasi_100nodes_network.content_distribution 	client-83 	39
scalar barabasi_100nodes_network.content_distribution 	client-84 	56
scalar barabasi_100nodes_network.content_distribution 	client-85 	67
scalar barabasi_100nodes_network.content_distribution 	client-86 	16
scalar barabasi_100nodes_network.content_distribution 	client-87 	70
scalar barabasi_100nodes_network.content_distribution 	client-88 	7
scalar barabasi_100nodes_network.content_distribution 	client-89 	99
scalar barabasi_100nodes_network.content_distribution 	client-90 	90
scalar barabasi_100nodes_network.content_distribution 	client-91 	5
scalar barabasi_100nodes_network.content_distribution 	client-92 	83
scalar barabasi_100nodes_network.content_distribution 	client-93 	20
scalar barabasi_100nodes_network.content_distribution 	client-94 	11
scalar barabasi_100nodes_network.content_distribution 	client-95 	9
scalar barabasi_100nodes_network.content_distribution 	client-96 	19
scalar barabasi_100nodes_network.content_distribution 	client-97 	12
scalar barabasi_100nodes_network.content_distribution 	client-98 	15
scalar barabasi_100nodes_network.content_distribution 	client-99 	34
scalar barabasi_100nodes_network.content_distribution 	repo-0_card 	250135
scalar barabasi_100nodes_network.content_distribution 	repo-0_price 	0
scalar barabasi_100nodes_network.content_distribution 	repo-1_card 	249891
scalar barabasi_100nodes_network.content_distribution 	repo-1_price 	0
scalar barabasi_100nodes_network.content_distribution 	repo-2_card 	249908
scalar barabasi_100nodes_network.content_distribution 	repo-2_price 	0
scalar barabasi_100nodes_network.content_distribution 	repo-3_card 	250066
scalar barabasi_100nodes_network.content_distribution 	repo-3_price 	0
scalar barabasi_100nodes_network.content_distribution 	repo-4_card 	0
scalar barabasi_100nodes_network.content_distribution 	repo-4_price 	0
scalar barabasi_100nodes_network.content_distribution 	repo-5_card 	0
scalar barabasi_100nodes_network.content_distribution 	repo-5_price 	0
scalar barabasi_100nodes_network.content_distribution 	repo-6_card 	0
scalar barabasi_100nodes_network.content_distribution 	repo-6_price 	0
scalar barabasi_100nodes_network.content_distribution 	repo-7_card 	0
scalar barabasi_100nodes_network.content_distribution 	repo-7_price 	0
scalar barabasi_100nodes_network.content_distribution 	repo-8_card 	0
scalar barabasi_100nodes_network.content_distribution 	repo-8_price 	0
scalar barabasi_100nodes_network.content_distribution 	repo-9_card 	0
scalar barabasi_100nodes_network.content_distribution 	repo-9_price 	0
scalar barabasi_100nodes_network.content_distribution 	repo-10_card 	0
scalar barabasi_100nodes_network.content_distribution 	repo-10_price 	0
scalar barabasi_100nodes_network.content_distribution 	repo-11_card 	0
scalar barabasi_100nodes_network.content_distribution 	repo-11_price 	0
scalar barabasi_100nodes_network.content_distribution 	repo-12_card 	0
scalar barabasi_100nodes_network.content_distribution 	repo-12_price 	0
scalar barabasi_100nodes_network.content_distribution 	repo-13_card 	0
scalar barabasi_100nodes_network.content_distribution 	repo-13_price 	0
scalar barabasi_100nodes_network.content_distribution 	repo-14_card 	0
scalar barabasi_100nodes_network.content_distribution 	repo-14_price 	0
scalar barabasi_100nodes_network.content_distribution 	repo-15_card 	0
scalar barabasi_100nodes_network.content_distribution 	repo-15_price 	0
scalar barabasi_100nodes_network.content_distribution 	repo-16_card 	0
scalar barabasi_100nodes_network.content_distribution 	repo-16_price 	0
scalar barabasi_100nodes_network.content_distribution 	repo-17_card 	0
scalar barabasi_100nodes_network.content_distribution 	repo-17_price 	0
scalar barabasi_100nodes_network.content_distribution 	repo-18_card 	0
scalar barabasi_100nodes_network.content_distribution 	repo-18_price 	0
scalar barabasi_100nodes_network.content_distribution 	repo-19_card 	0
scalar barabasi_100nodes_network.content_distribution 	repo-19_price 	0
scalar barabasi_100nodes_network.content_distribution 	repo-20_card 	0
scalar barabasi_100nodes_network.content_distribution 	repo-20_price 	0
scalar barabasi_100nodes_network.content_distribution 	repo-21_card 	0
scalar barabasi_100nodes_network.content_distribution 	repo-21_price 	0
scalar barabasi_100nodes_network.content_distribution 	repo-22_card 	0
scalar barabasi_100nodes_network.content_distribution 	repo-22_price 	0
scalar barabasi_100nodes_network.content_distribution 	repo-23_card 	0
scalar barabasi_100nodes_network.content_distribution 	repo-23_price 	0
scalar barabasi_100nodes_network.content_distribution 	repo-24_card 	0
scalar barabasi_100nodes_network.content_distribution 	repo-24_price 	0
scalar barabasi_100nodes_network.content_distribution 	repo-25_card 	0
scalar barabasi_100nodes_network.content_distribution 	repo-25_price 	0
scalar barabasi_100nodes_network.content_distribution 	repo-26_card 	0
scalar barabasi_100nodes_network.content_distribution 	repo-26_price 	0
scalar barabasi_100nodes_network.content_distribution 	repo-27_card 	0
scalar barabasi_100nodes_network.content_distribution 	repo-27_price 	0
scalar barabasi_100nodes_network.content_distribution 	repo-28_card 	0
scalar barabasi_100nodes_network.content_distribution 	repo-28_price 	0
scalar barabasi_100nodes_network.content_distribution 	repo-29_card 	0
scalar barabasi_100nodes_network.content_distribution 	repo-29_price 	0
scalar barabasi_100nodes_network.content_distribution 	repo-30_card 	0
scalar barabasi_100nodes_network.content_distribution 	repo-30_price 	0
scalar barabasi_100nodes_network.content_distribution 	repo-31_card 	0
scalar barabasi_100nodes_network.content_distribution 	repo-31_price 	0
scalar barabasi_100nodes_network.content_distribution 	repo-32_card 	0
scalar barabasi_100nodes_network.content_distribution 	repo-32_price 	0
scalar barabasi_100nodes_network.content_distribution 	repo-33_card 	0
scalar barabasi_100nodes_network.content_distribution 	repo-33_price 	0
scalar barabasi_100nodes_network.content_distribution 	repo-34_card 	0
scalar barabasi_100nodes_network.content_distribution 	repo-34_price 	0
scalar barabasi_100nodes_network.content_distribution 	repo-35_card 	0
scalar barabasi_100nodes_network.content_distribution 	repo-35_price 	0
scalar barabasi_100nodes_network.content_distribution 	repo-36_card 	0
scalar barabasi_100nodes_network.content_distribution 	repo-36_price 	0
scalar barabasi_100nodes_network.content_distribution 	repo-37_card 	0
scalar barabasi_100nodes_network.content_distribution 	repo-37_price 	0
scalar barabasi_100nodes_network.content_distribution 	repo-38_card 	0
scalar barabasi_100nodes_network.content_distribution 	repo-38_price 	0
scalar barabasi_100nodes_network.content_distribution 	repo-39_card 	0
scalar barabasi_100nodes_network.content_distribution 	repo-39_price 	0
scalar barabasi_100nodes_network.content_distribution 	repo-40_card 	0
scalar barabasi_100nodes_network.content_distribution 	repo-40_price 	0
scalar barabasi_100nodes_network.content_distribution 	repo-41_card 	0
scalar barabasi_100nodes_network.content_distribution 	repo-41_price 	0
scalar barabasi_100nodes_network.content_distribution 	repo-42_card 	0
scalar barabasi_100nodes_network.content_distribution 	repo-42_price 	0
scalar barabasi_100nodes_network.content_distribution 	repo-43_card 	0
scalar barabasi_100nodes_network.content_distribution 	repo-43_price 	0
scalar barabasi_100nodes_network.content_distribution 	repo-44_card 	0
scalar barabasi_100nodes_network.content_distribution 	repo-44_price 	0
scalar barabasi_100nodes_network.content_distribution 	repo-45_card 	0
scalar barabasi_100nodes_network.content_distribution 	repo-45_price 	0
scalar barabasi_100nodes_network.content_distribution 	repo-46_card 	0
scalar barabasi_100nodes_network.content_distribution 	repo-46_price 	0
scalar barabasi_100nodes_network.content_distribution 	repo-47_card 	0
scalar barabasi_100nodes_network.content_distribution 	repo-47_price 	0
scalar barabasi_100nodes_network.content_distribution 	repo-48_card 	0
scalar barabasi_100nodes_network.content_distribution 	repo-48_price 	0
scalar barabasi_100nodes_network.content_distribution 	repo-49_card 	0
scalar barabasi_100nodes_network.content_distribution 	repo-49_price 	0
scalar barabasi_100nodes_network.content_distribution 	repo-50_card 	0
scalar barabasi_100nodes_network.content_distribution 	repo-50_price 	0
scalar barabasi_100nodes_network.content_distribution 	repo-51_card 	0
scalar barabasi_100nodes_network.content_distribution 	repo-51_price 	0
scalar barabasi_100nodes_network.content_distribution 	repo-52_card 	0
scalar barabasi_100nodes_network.content_distribution 	repo-52_price 	0
scalar barabasi_100nodes_network.content_distribution 	repo-53_card 	0
scalar barabasi_100nodes_network.content_distribution 	repo-53_price 	0
scalar barabasi_100nodes_network.content_distribution 	repo-54_card 	0
scalar barabasi_100nodes_network.content_distribution 	repo-54_price 	0
scalar barabasi_100nodes_network.content_distribution 	repo-55_card 	0
scalar barabasi_100nodes_network.content_distribution 	repo-55_price 	0
scalar barabasi_100nodes_network.content_distribution 	repo-56_card 	0
scalar barabasi_100nodes_network.content_distribution 	repo-56_price 	0
scalar barabasi_100nodes_network.content_distribution 	repo-57_card 	0
scalar barabasi_100nodes_network.content_distribution 	repo-57_price 	0
scalar barabasi_100nodes_network.content_distribution 	repo-58_card 	0
scalar barabasi_100nodes_network.content_distribution 	repo-58_price 	0
scalar barabasi_100nodes_network.content_distribution 	repo-59_card 	0
scalar barabasi_100nodes_network.content_distribution 	repo-59_price 	0
scalar barabasi_100nodes_network.content_distribution 	repo-60_card 	0
scalar barabasi_100nodes_network.content_distribution 	repo-60_price 	0
scalar barabasi_100nodes_network.content_distribution 	repo-61_card 	0
scalar barabasi_100nodes_network.content_distribution 	repo-61_price 	0
scalar barabasi_100nodes_network.content_distribution 	repo-62_card 	0
scalar barabasi_100nodes_network.content_distribution 	repo-62_price 	0
scalar barabasi_100nodes_network.content_distribution 	repo-63_card 	0
scalar barabasi_100nodes_network.content_distribution 	repo-63_price 	0
scalar barabasi_100nodes_network.content_distribution 	repo-64_card 	0
scalar barabasi_100nodes_network.content_distribution 	repo-64_price 	0
scalar barabasi_100nodes_network.content_distribution 	repo-65_card 	0
scalar barabasi_100nodes_network.content_distribution 	repo-65_price 	0
scalar barabasi_100nodes_network.content_distribution 	repo-66_card 	0
scalar barabasi_100nodes_network.content_distribution 	repo-66_price 	0
scalar barabasi_100nodes_network.content_distribution 	repo-67_card 	0
scalar barabasi_100nodes_network.content_distribution 	repo-67_price 	0
scalar barabasi_100nodes_network.content_distribution 	repo-68_card 	0
scalar barabasi_100nodes_network.content_distribution 	repo-68_price 	0
scalar barabasi_100nodes_network.content_distribution 	repo-69_card 	0
scalar barabasi_100nodes_network.content_distribution 	repo-69_price 	0
scalar barabasi_100nodes_network.content_distribution 	repo-70_card 	0
scalar barabasi_100nodes_network.content_distribution 	repo-70_price 	0
scalar barabasi_100nodes_network.content_distribution 	repo-71_card 	0
scalar barabasi_100nodes_network.content_distribution 	repo-71_price 	0
scalar barabasi_100nodes_network.content_distribution 	repo-72_card 	0
scalar barabasi_100nodes_network.content_distribution 	repo-72_price 	0
scalar barabasi_100nodes_network.content_distribution 	repo-73_card 	0
scalar barabasi_100nodes_network.content_distribution 	repo-73_price 	0
scalar barabasi_100nodes_network.content_distribution 	repo-74_card 	0
scalar barabasi_100nodes_network.content_distribution 	repo-74_price 	0
scalar barabasi_100nodes_network.content_distribution 	repo-75_card 	0
scalar barabasi_100nodes_network.content_distribution 	repo-75_price 	0
scalar barabasi_100nodes_network.content_distribution 	repo-76_card 	0
scalar barabasi_100nodes_network.content_distribution 	repo-76_price 	0
scalar barabasi_100nodes_network.content_distribution 	repo-77_card 	0
scalar barabasi_100nodes_network.content_distribution 	repo-77_price 	0
scalar barabasi_100nodes_network.content_distribution 	repo-78_card 	0
scalar barabasi_100nodes_network.content_distribution 	repo-78_price 	0
scalar barabasi_100nodes_network.content_distribution 	repo-79_card 	0
scalar barabasi_100nodes_network.content_distribution 	repo-79_price 	0
scalar barabasi_100nodes_network.content_distribution 	repo-80_card 	0
scalar barabasi_100nodes_network.content_distribution 	repo-80_price 	0
scalar barabasi_100nodes_network.content_distribution 	repo-81_card 	0
scalar barabasi_100nodes_network.content_distribution 	repo-81_price 	0
scalar barabasi_100nodes_network.content_distribution 	repo-82_card 	0
scalar barabasi_100nodes_network.content_distribution 	repo-82_price 	0
scalar barabasi_100nodes_network.content_distribution 	repo-83_card 	0
scalar barabasi_100nodes_network.content_distribution 	repo-83_price 	0
scalar barabasi_100nodes_network.content_distribution 	repo-84_card 	0
scalar barabasi_100nodes_network.content_distribution 	repo-84_price 	0
scalar barabasi_100nodes_network.content_distribution 	repo-85_card 	0
scalar barabasi_100nodes_network.content_distribution 	repo-85_price 	0
scalar barabasi_100nodes_network.content_distribution 	repo-86_card 	0
scalar barabasi_100nodes_network.content_distribution 	repo-86_price 	0
scalar barabasi_100nodes_network.content_distribution 	repo-87_card 	0
scalar barabasi_100nodes_network.content_distribution 	repo-87_price 	0
scalar barabasi_100nodes_network.content_distribution 	repo-88_card 	0
scalar barabasi_100nodes_network.content_distribution 	repo-88_price 	0
scalar barabasi_100nodes_network.content_distribution 	repo-89_card 	0
scalar barabasi_100nodes_network.content_distribution 	repo-89_price 	0
scalar barabasi_100nodes_network.content_distribution 	repo-90_card 	0
scalar barabasi_100nodes_network.content_distribution 	repo-90_price 	0
scalar barabasi_100nodes_network.content_distribution 	repo-91_card 	0
scalar barabasi_100nodes_network.content_distribution 	repo-91_price 	0
scalar barabasi_100nodes_network.content_distribution 	repo-92_card 	0
scalar barabasi_100nodes_network.content_distribution 	repo-92_price 	0
scalar barabasi_100nodes_network.content_distribution 	repo-93_card 	0
scalar barabasi_100nodes_network.content_distribution 	repo-93_price 	0
scalar barabasi_100nodes_network.content_distribution 	repo-94_card 	0
scalar barabasi_100nodes_network.content_distribution 	repo-94_price 	0
scalar barabasi_100nodes_network.content_distribution 	repo-95_card 	0
scalar barabasi_100nodes_network.content_distribution 	repo-95_price 	0
scalar barabasi_100nodes_network.content_distribution 	repo-96_card 	0
scalar barabasi_100nodes_network.content_distribution 	repo-96_price 	0
scalar barabasi_100nodes_network.content_distribution 	repo-97_card 	0
scalar barabasi_100nodes_network.content_distribution 	repo-97_price 	0
scalar barabasi_100nodes_network.content_distribution 	repo-98_card 	0
scalar barabasi_100nodes_network.content_distribution 	repo-98_price 	0
scalar barabasi_100nodes_network.content_distribution 	repo-99_card 	0
scalar barabasi_100nodes_network.content_distribution 	repo-99_price 	0
scalar barabasi_100nodes_network.statistics 	p_hit 	0.21622469323034
scalar barabasi_100nodes_network.statistics 	interests 	8321.39
scalar barabasi_100nodes_network.statistics 	data 	5293.29
scalar barabasi_100nodes_network.statistics 	hdistance 	2.1523068551654
scalar barabasi_100nodes_network.statistics 	avg_time 	0
scalar barabasi_100nodes_network.statistics 	downloads 	302810
scalar barabasi_100nodes_network.statistics 	total_cost 	0
scalar barabasi_100nodes_network.statistics 	total_replicas 	1000000
scalar barabasi_100nodes_network.statistics 	"representations_downloaded 1:" 	0
scalar barabasi_100nodes_network.statistics 	"slots_per_representation 100:" 	0
scalar barabasi_100nodes_network.statistics 	inner_hit 	0.59419768171461
scalar barabasi_100nodes_network.statistics 	execution_time 	23
scalar barabasi_100nodes_network.node[0].core_layer 	interests[0] 	43434
scalar barabasi_100nodes_network.node[0].core_layer 	data[0] 	33213
scalar barabasi_100nodes_network.node[0].core_layer 	slots_sent[face$o[1]->client[0]] 	305800
scalar barabasi_100nodes_network.node[0].core_layer 	slots_sent[face$o[2]->node[1]] 	192000
scalar barabasi_100nodes_network.node[0].core_layer 	slots_sent[face$o[3]->node[2]] 	0
scalar barabasi_100nodes_network.node[0].core_layer 	slots_sent[face$o[4]->node[5]] 	643400
scalar barabasi_100nodes_network.node[0].core_layer 	slots_sent[face$o[5]->node[10]] 	347400
scalar barabasi_100nodes_network.node[0].core_layer 	slots_sent[face$o[6]->node[11]] 	183700
scalar barabasi_100nodes_network.node[0].core_layer 	slots_sent[face$o[7]->node[15]] 	506900
scalar barabasi_100nodes_network.node[0].core_layer 	slots_sent[face$o[8]->node[21]] 	492000
scalar barabasi_100nodes_network.node[0].core_layer 	slots_sent[face$o[9]->node[22]] 	187700
scalar barabasi_100nodes_network.node[0].core_layer 	slots_sent[face$o[10]->node[28]] 	182500
scalar barabasi_100nodes_network.node[0].core_layer 	slots_sent[face$o[11]->node[37]] 	188600
scalar barabasi_100nodes_network.node[0].core_layer 	slots_sent[face$o[12]->node[44]] 	186300
scalar barabasi_100nodes_network.node[0].core_layer 	slots_sent[face$o[13]->node[58]] 	348100
scalar barabasi_100nodes_network.node[0].core_layer 	slots_sent[face$o[14]->node[73]] 	259300
scalar barabasi_100nodes_network.node[0].core_layer 	slots_sent[face$o[15]->node[74]] 	138200
scalar barabasi_100nodes_network.node[0].core_layer 	slots_sent[face$o[16]->node[93]] 	181500
scalar barabasi_100nodes_network.node[0].content_store 	p_hit[0] 	0.23532255836441
scalar barabasi_100nodes_network.node[0].content_store 	hits[0] 	10221
scalar barabasi_100nodes_network.node[0].content_store 	misses[0] 	33213
scalar barabasi_100nodes_network.node[0].content_store 	decision_yes[0] 	33213
scalar barabasi_100nodes_network.node[0].content_store 	decision_no[0] 	0
scalar barabasi_100nodes_network.node[0].content_store 	decision_ratio[0] 	1
scalar barabasi_100nodes_network.node[1].core_layer 	interests[1] 	3035
scalar barabasi_100nodes_network.node[1].core_layer 	data[1] 	1920
scalar barabasi_100nodes_network.node[1].core_layer 	slots_sent[face$o[1]->client[1]] 	303500
scalar barabasi_100nodes_network.node[1].core_layer 	slots_sent[face$o[2]->node[0]] 	0
scalar barabasi_100nodes_network.node[1].content_store 	p_hit[1] 	0.3673805601318
scalar barabasi_100nodes_network.node[1].content_store 	hits[1] 	1115
scalar barabasi_100nodes_network.node[1].content_store 	misses[1] 	1920
scalar barabasi_100nodes_network.node[1].content_store 	decision_yes[1] 	1920
scalar barabasi_100nodes_network.node[1].content_store 	decision_no[1] 	0
scalar barabasi_100nodes_network.node[1].content_store 	decision_ratio[1] 	1
scalar barabasi_100nodes_network.node[2].core_layer 	interests[2] 	134496
scalar barabasi_100nodes_network.node[2].core_layer 	data[2] 	112406
scalar barabasi_100nodes_network.node[2].core_layer 	slots_sent[face$o[1]->client[2]] 	294900
scalar barabasi_100nodes_network.node[2].core_layer 	slots_sent[face$o[2]->node[0]] 	3321300
scalar barabasi_100nodes_network.node[2].core_layer 	slots_sent[face$o[3]->node[3]] 	248600
scalar barabasi_100nodes_network.node[2].core_layer 	slots_sent[face$o[4]->node[4]] 	641300
scalar barabasi_100nodes_network.node[2].core_layer 	slots_sent[face$o[5]->node[6]] 	187500
scalar barabasi_100nodes_network.node[2].core_layer 	slots_sent[face$o[6]->node[7]] 	1471000
scalar barabasi_100nodes_network.node[2].core_layer 	slots_sent[face$o[7]->node[8]] 	1146400
scalar barabasi_100nodes_network.node[2].core_layer 	slots_sent[face$o[8]->node[13]] 	513500
scalar barabasi_100nodes_network.node[2].core_layer 	slots_sent[face$o[9]->node[16]] 	1028200
scalar barabasi_100nodes_network.node[2].core_layer 	slots_sent[face$o[10]->node[18]] 	502900
scalar barabasi_100nodes_network.node[2].core_layer 	slots_sent[face$o[11]->node[25]] 	256200
scalar barabasi_100nodes_network.node[2].core_layer 	slots_sent[face$o[12]->node[26]] 	561600
scalar barabasi_100nodes_network.node[2].core_layer 	slots_sent[face$o[13]->node[29]] 	145500
scalar barabasi_100nodes_network.node[2].core_layer 	slots_sent[face$o[14]->node[32]] 	495300
scalar barabasi_100nodes_network.node[2].core_layer 	slots_sent[face$o[15]->node[33]] 	186200
scalar barabasi_100nodes_network.node[2].core_layer 	slots_sent[face$o[16]->node[34]] 	189900
scalar barabasi_100nodes_network.node[2].core_layer 	slots_sent[face$o[17]->node[36]] 	344300
scalar barabasi_100nodes_network.node[2].core_layer 	slots_sent[face$o[18]->node[41]] 	952700
scalar barabasi_100nodes_network.node[2].core_layer 	slots_sent[face$o[19]->node[45]] 	187300
scalar barabasi_100nodes_network.node[2].core_layer 	slots_sent[face$o[20]->node[59]] 	184500
scalar barabasi_100nodes_network.node[2].core_layer 	slots_sent[face$o[21]->node[62]] 	408100
scalar barabasi_100nodes_network.node[2].core_layer 	slots_sent[face$o[22]->node[79]] 	182400
scalar barabasi_100nodes_network.node[2].content_store 	p_hit[2] 	0.16424280275993
scalar barabasi_100nodes_network.node[2].content_store 	hits[2] 	22090
scalar barabasi_100nodes_network.node[2].content_store 	misses[2] 	112406
scalar barabasi_100nodes_network.node[2].content_store 	decision_yes[2] 	112406
scalar barabasi_100nodes_network.node[2].content_store 	decision_no[2] 	0
scalar barabasi_100nodes_network.node[2].content_store 	decision_ratio[2] 	1
scalar barabasi_100nodes_network.node[3].core_layer 	interests[3] 	4825
scalar barabasi_100nodes_network.node[3].core_layer 	repo_load[3] 	1144
scalar barabasi_100nodes_network.node[3].core_layer 	data[3] 	2486
scalar barabasi_100nodes_network.node[3].core_layer 	slots_sent[face$o[1]->client[3]] 	298200
scalar barabasi_100nodes_network.node[3].core_layer 	slots_sent[face$o[2]->node[2]] 	0
scalar barabasi_100nodes_network.node[3].core_layer 	slots_sent[face$o[3]->node[52]] 	184300
scalar barabasi_100nodes_network.node[3].content_store 	p_hit[3] 	0.24766839378238
scalar barabasi_100nodes_network.node[3].content_store 	hits[3] 	1195
scalar barabasi_100nodes_network.node[3].content_store 	misses[3] 	3630
scalar barabasi_100nodes_network.node[3].content_store 	decision_yes[3] 	2486
scalar barabasi_100nodes_network.node[3].content_store 	decision_no[3] 	1144
scalar barabasi_100nodes_network.node[3].content_store 	decision_ratio[3] 	0.68484848484848
scalar barabasi_100nodes_network.node[4].core_layer 	interests[4] 	11319
scalar barabasi_100nodes_network.node[4].core_layer 	repo_load[4] 	2764
scalar barabasi_100nodes_network.node[4].core_layer 	data[4] 	6413
scalar barabasi_100nodes_network.node[4].core_layer 	slots_sent[face$o[1]->client[4]] 	300200
scalar barabasi_100nodes_network.node[4].core_layer 	slots_sent[face$o[2]->node[2]] 	0
scalar barabasi_100nodes_network.node[4].core_layer 	slots_sent[face$o[3]->node[27]] 	352100
scalar barabasi_100nodes_network.node[4].core_layer 	slots_sent[face$o[4]->node[30]] 	291900
scalar barabasi_100nodes_network.node[4].core_layer 	slots_sent[face$o[5]->node[85]] 	187700
scalar barabasi_100nodes_network.node[4].content_store 	p_hit[4] 	0.18923933209647
scalar barabasi_100nodes_network.node[4].content_store 	hits[4] 	2142
scalar barabasi_100nodes_network.node[4].content_store 	misses[4] 	9177
scalar barabasi_100nodes_network.node[4].content_store 	decision_yes[4] 	6413
scalar barabasi_100nodes_network.node[4].content_store 	decision_no[4] 	2764
scalar barabasi_100nodes_network.node[4].content_store 	decision_ratio[4] 	0.69881224801133
scalar barabasi_100nodes_network.node[5].core_layer 	interests[5] 	8420
scalar barabasi_100nodes_network.node[5].core_layer 	data[5] 	6434
scalar barabasi_100nodes_network.node[5].core_layer 	slots_sent[face$o[1]->client[5]] 	303900
scalar barabasi_100nodes_network.node[5].core_layer 	slots_sent[face$o[2]->node[0]] 	0
scalar barabasi_100nodes_network.node[5].core_layer 	slots_sent[face$o[3]->node[9]] 	187200
scalar barabasi_100nodes_network.node[5].core_layer 	slots_sent[face$o[4]->node[35]] 	350900
scalar barabasi_100nodes_network.node[5].content_store 	p_hit[5] 	0.23586698337292
scalar barabasi_100nodes_network.node[5].content_store 	hits[5] 	1986
scalar barabasi_100nodes_network.node[5].content_store 	misses[5] 	6434
scalar barabasi_100nodes_network.node[5].content_store 	decision_yes[5] 	6434
scalar barabasi_100nodes_network.node[5].content_store 	decision_no[5] 	0
scalar barabasi_100nodes_network.node[5].content_store 	decision_ratio[5] 	1
scalar barabasi_100nodes_network.node[6].core_layer 	interests[6] 	2997
scalar barabasi_100nodes_network.node[6].core_layer 	data[6] 	1875
scalar barabasi_100nodes_network.node[6].core_layer 	slots_sent[face$o[1]->client[6]] 	299700
scalar barabasi_100nodes_network.node[6].core_layer 	slots_sent[face$o[2]->node[2]] 	0
scalar barabasi_100nodes_network.node[6].content_store 	p_hit[6] 	0.37437437437437
scalar barabasi_100nodes_network.node[6].content_store 	hits[6] 	1122
scalar barabasi_100nodes_network.node[6].content_store 	misses[6] 	1875
scalar barabasi_100nodes_network.node[6].content_store 	decision_yes[6] 	1875
scalar barabasi_100nodes_network.node[6].content_store 	decision_no[6] 	0
scalar barabasi_100nodes_network.node[6].content_store 	decision_ratio[6] 	1
scalar barabasi_100nodes_network.node[7].core_layer 	interests[7] 	46841
scalar barabasi_100nodes_network.node[7].core_layer 	data[7] 	39425
scalar barabasi_100nodes_network.node[7].core_layer 	slots_sent[face$o[1]->client[7]] 	306700
scalar barabasi_100nodes_network.node[7].core_layer 	slots_sent[face$o[2]->node[2]] 	2630600
scalar barabasi_100nodes_network.node[7].core_layer 	slots_sent[face$o[3]->node[23]] 	853400
scalar barabasi_100nodes_network.node[7].core_layer 	slots_sent[face$o[4]->node[31]] 	519200
scalar barabasi_100nodes_network.node[7].core_layer 	slots_sent[face$o[5]->node[49]] 	182800
scalar barabasi_100nodes_network.node[7].core_layer 	slots_sent[face$o[6]->node[90]] 	191400
scalar barabasi_100nodes_network.node[7].content_store 	p_hit[7] 	0.15832283683098
scalar barabasi_100nodes_network.node[7].content_store 	hits[7] 	7416
scalar barabasi_100nodes_network.node[7].content_store 	misses[7] 	39425
scalar barabasi_100nodes_network.node[7].content_store 	decision_yes[7] 	39425
scalar barabasi_100nodes_network.node[7].content_store 	decision_no[7] 	0
scalar barabasi_100nodes_network.node[7].content_store 	decision_ratio[7] 	1
scalar barabasi_100nodes_network.node[8].core_layer 	interests[8] 	15621
scalar barabasi_100nodes_network.node[8].core_layer 	data[8] 	11464
scalar barabasi_100nodes_network.node[8].core_layer 	slots_sent[face$o[1]->client[8]] 	289300
scalar barabasi_100nodes_network.node[8].core_layer 	slots_sent[face$o[2]->node[2]] 	0
scalar barabasi_100nodes_network.node[8].core_layer 	slots_sent[face$o[3]->node[12]] 	178200
scalar barabasi_100nodes_network.node[8].core_layer 	slots_sent[face$o[4]->node[14]] 	185900
scalar barabasi_100nodes_network.node[8].core_layer 	slots_sent[face$o[5]->node[17]] 	188200
scalar barabasi_100nodes_network.node[8].core_layer 	slots_sent[face$o[6]->node[39]] 	347700
scalar barabasi_100nodes_network.node[8].core_layer 	slots_sent[face$o[7]->node[61]] 	191200
scalar barabasi_100nodes_network.node[8].core_layer 	slots_sent[face$o[8]->node[66]] 	181600
scalar barabasi_100nodes_network.node[8].content_store 	p_hit[8] 	0.26611612572819
scalar barabasi_100nodes_network.node[8].content_store 	hits[8] 	4157
scalar barabasi_100nodes_network.node[8].content_store 	misses[8] 	11464
scalar barabasi_100nodes_network.node[8].content_store 	decision_yes[8] 	11464
scalar barabasi_100nodes_network.node[8].content_store 	decision_no[8] 	0
scalar barabasi_100nodes_network.node[8].content_store 	decision_ratio[8] 	1
scalar barabasi_100nodes_network.node[9].core_layer 	interests[9] 	3063
scalar barabasi_100nodes_network.node[9].core_layer 	data[9] 	1872
scalar barabasi_100nodes_network.node[9].core_layer 	slots_sent[face$o[1]->client[9]] 	306300
scalar barabasi_100nodes_network.node[9].core_layer 	slots_sent[face$o[2]->node[5]] 	0
scalar barabasi_100nodes_network.node[9].content_store 	p_hit[9] 	0.38883447600392
scalar barabasi_100nodes_network.node[9].content_store 	hits[9] 	1191
scalar barabasi_100nodes_network.node[9].content_store 	misses[9] 	1872
scalar barabasi_100nodes_network.node[9].content_store 	decision_yes[9] 	1872
scalar barabasi_100nodes_network.node[9].content_store 	decision_no[9] 	0
scalar barabasi_100nodes_network.node[9].content_store 	decision_ratio[9] 	1
scalar barabasi_100nodes_network.node[10].core_layer 	interests[10] 	4957
scalar barabasi_100nodes_network.node[10].core_layer 	data[10] 	3474
scalar barabasi_100nodes_network.node[10].core_layer 	slots_sent[face$o[1]->client[10]] 	309400
scalar barabasi_100nodes_network.node[10].core_layer 	slots_sent[face$o[2]->node[0]] 	0
scalar barabasi_100nodes_network.node[10].core_layer 	slots_sent[face$o[3]->node[71]] 	186300
scalar barabasi_100nodes_network.node[10].content_store 	p_hit[10] 	0.29917288682671
scalar barabasi_100nodes_network.node[10].content_store 	hits[10] 	1483
scalar barabasi_100nodes_network.node[10].content_store 	misses[10] 	3474
scalar barabasi_100nodes_network.node[10].content_store 	decision_yes[10] 	3474
scalar barabasi_100nodes_network.node[10].content_store 	decision_no[10] 	0
scalar barabasi_100nodes_network.node[10].content_store 	decision_ratio[10] 	1
scalar barabasi_100nodes_network.node[11].core_layer 	interests[11] 	3003
scalar barabasi_100nodes_network.node[11].core_layer 	data[11] 	1837
scalar barabasi_100nodes_network.node[11].core_layer 	slots_sent[face$o[1]->client[11]] 	300300
scalar barabasi_100nodes_network.node[11].core_layer 	slots_sent[face$o[2]->node[0]] 	0
scalar barabasi_100nodes_network.node[11].content_store 	p_hit[11] 	0.38827838827839
scalar barabasi_100nodes_network.node[11].content_store 	hits[11] 	1166
scalar barabasi_100nodes_network.node[11].content_store 	misses[11] 	1837
scalar barabasi_100nodes_network.node[11].content_store 	decision_yes[11] 	1837
scalar barabasi_100nodes_network.node[11].content_store 	decision_no[11] 	0
scalar barabasi_100nodes_network.node[11].content_store 	decision_ratio[11] 	1
scalar barabasi_100nodes_network.node[12].core_layer 	interests[12] 	2938
scalar barabasi_100nodes_network.node[12].core_layer 	data[12] 	1782
scalar barabasi_100nodes_network.node[12].core_layer 	slots_sent[face$o[1]->client[12]] 	293800
scalar barabasi_100nodes_network.node[12].core_layer 	slots_sent[face$o[2]->node[8]] 	0
scalar barabasi_100nodes_network.node[12].content_store 	p_hit[12] 	0.39346494213751
scalar barabasi_100nodes_network.node[12].content_store 	hits[12] 	1156
scalar barabasi_100nodes_network.node[12].content_store 	misses[12] 	1782
scalar barabasi_100nodes_network.node[12].content_store 	decision_yes[12] 	1782
scalar barabasi_100nodes_network.node[12].content_store 	decision_no[12] 	0
scalar barabasi_100nodes_network.node[12].content_store 	decision_ratio[12] 	1
scalar barabasi_100nodes_network.node[13].core_layer 	interests[13] 	35194
scalar barabasi_100nodes_network.node[13].core_layer 	data[13] 	28760
scalar barabasi_100nodes_network.node[13].core_layer 	slots_sent[face$o[1]->client[13]] 	313700
scalar barabasi_100nodes_network.node[13].core_layer 	slots_sent[face$o[2]->node[2]] 	2697900
scalar barabasi_100nodes_network.node[13].core_layer 	slots_sent[face$o[3]->node[67]] 	142800
scalar barabasi_100nodes_network.node[13].core_layer 	slots_sent[face$o[4]->node[78]] 	365000
scalar barabasi_100nodes_network.node[13].content_store 	p_hit[13] 	0.18281525259987
scalar barabasi_100nodes_network.node[13].content_store 	hits[13] 	6434
scalar barabasi_100nodes_network.node[13].content_store 	misses[13] 	28760
scalar barabasi_100nodes_network.node[13].content_store 	decision_yes[13] 	28760
scalar barabasi_100nodes_network.node[13].content_store 	decision_no[13] 	0
scalar barabasi_100nodes_network.node[13].content_store 	decision_ratio[13] 	1
scalar barabasi_100nodes_network.node[14].core_layer 	interests[14] 	2988
scalar barabasi_100nodes_network.node[14].core_layer 	data[14] 	1859
scalar barabasi_100nodes_network.node[14].core_layer 	slots_sent[face$o[1]->client[14]] 	298800
scalar barabasi_100nodes_network.node[14].core_layer 	slots_sent[face$o[2]->node[8]] 	0
scalar barabasi_100nodes_network.node[14].content_store 	p_hit[14] 	0.37784471218206
scalar barabasi_100nodes_network.node[14].content_store 	hits[14] 	1129
scalar barabasi_100nodes_network.node[14].content_store 	misses[14] 	1859
scalar barabasi_100nodes_network.node[14].content_store 	decision_yes[14] 	1859
scalar barabasi_100nodes_network.node[14].content_store 	decision_no[14] 	0
scalar barabasi_100nodes_network.node[14].content_store 	decision_ratio[14] 	1
scalar barabasi_100nodes_network.node[15].core_layer 	interests[15] 	6972
scalar barabasi_100nodes_network.node[15].core_layer 	data[15] 	5069
scalar barabasi_100nodes_network.node[15].core_layer 	slots_sent[face$o[1]->client[15]] 	315400
scalar barabasi_100nodes_network.node[15].core_layer 	slots_sent[face$o[2]->node[0]] 	0
scalar barabasi_100nodes_network.node[15].core_layer 	slots_sent[face$o[3]->node[40]] 	193900
scalar barabasi_100nodes_network.node[15].core_layer 	slots_sent[face$o[4]->node[56]] 	187900
scalar barabasi_100nodes_network.node[15].content_store 	p_hit[15] 	0.27294893861159
scalar barabasi_100nodes_network.node[15].content_store 	hits[15] 	1903
scalar barabasi_100nodes_network.node[15].content_store 	misses[15] 	5069
scalar barabasi_100nodes_network.node[15].content_store 	decision_yes[15] 	5069
scalar barabasi_100nodes_network.node[15].content_store 	decision_no[15] 	0
scalar barabasi_100nodes_network.node[15].content_store 	decision_ratio[15] 	1
scalar barabasi_100nodes_network.node[16].core_layer 	interests[16] 	12608
scalar barabasi_100nodes_network.node[16].core_layer 	data[16] 	10282
scalar barabasi_100nodes_network.node[16].core_layer 	slots_sent[face$o[1]->client[16]] 	298600
scalar barabasi_100nodes_network.node[16].core_layer 	slots_sent[face$o[2]->node[2]] 	0
scalar barabasi_100nodes_network.node[16].core_layer 	slots_sent[face$o[3]->node[19]] 	772800
scalar barabasi_100nodes_network.node[16].core_layer 	slots_sent[face$o[4]->node[20]] 	189400
scalar barabasi_100nodes_network.node[16].content_store 	p_hit[16] 	0.18448604060914
scalar barabasi_100nodes_network.node[16].content_store 	hits[16] 	2326
scalar barabasi_100nodes_network.node[16].content_store 	misses[16] 	10282
scalar barabasi_100nodes_network.node[16].content_store 	decision_yes[16] 	10282
scalar barabasi_100nodes_network.node[16].content_store 	decision_no[16] 	0
scalar barabasi_100nodes_network.node[16].content_store 	decision_ratio[16] 	1
scalar barabasi_100nodes_network.node[17].core_layer 	interests[17] 	3049
scalar barabasi_100nodes_network.node[17].core_layer 	data[17] 	1882
scalar barabasi_100nodes_network.node[17].core_layer 	slots_sent[face$o[1]->client[17]] 	304900
scalar barabasi_100nodes_network.node[17].core_layer 	slots_sent[face$o[2]->node[8]] 	0
scalar barabasi_100nodes_network.node[17].content_store 	p_hit[17] 	0.38274844211217
scalar barabasi_100nodes_network.node[17].content_store 	hits[17] 	1167
scalar barabasi_100nodes_network.node[17].content_store 	misses[17] 	1882
scalar barabasi_100nodes_network.node[17].content_store 	decision_yes[17] 	1882
scalar barabasi_100nodes_network.node[17].content_store 	decision_no[17] 	0
scalar barabasi_100nodes_network.node[17].content_store 	decision_ratio[17] 	1
scalar barabasi_100nodes_network.node[18].core_layer 	interests[18] 	36587
scalar barabasi_100nodes_network.node[18].core_layer 	data[18] 	29732
scalar barabasi_100nodes_network.node[18].core_layer 	slots_sent[face$o[1]->client[18]] 	294100
scalar barabasi_100nodes_network.node[18].core_layer 	slots_sent[face$o[2]->node[2]] 	2854100
scalar barabasi_100nodes_network.node[18].core_layer 	slots_sent[face$o[3]->node[53]] 	189300
scalar barabasi_100nodes_network.node[18].core_layer 	slots_sent[face$o[4]->node[68]] 	136700
scalar barabasi_100nodes_network.node[18].core_layer 	slots_sent[face$o[5]->node[72]] 	184500
scalar barabasi_100nodes_network.node[18].content_store 	p_hit[18] 	0.18736163118047
scalar barabasi_100nodes_network.node[18].content_store 	hits[18] 	6855
scalar barabasi_100nodes_network.node[18].content_store 	misses[18] 	29732
scalar barabasi_100nodes_network.node[18].content_store 	decision_yes[18] 	29732
scalar barabasi_100nodes_network.node[18].content_store 	decision_no[18] 	0
scalar barabasi_100nodes_network.node[18].content_store 	decision_ratio[18] 	1
scalar barabasi_100nodes_network.node[19].core_layer 	interests[19] 	10646
scalar barabasi_100nodes_network.node[19].core_layer 	data[19] 	7728
scalar barabasi_100nodes_network.node[19].core_layer 	slots_sent[face$o[1]->client[19]] 	313000
scalar barabasi_100nodes_network.node[19].core_layer 	slots_sent[face$o[2]->node[16]] 	0
scalar barabasi_100nodes_network.node[19].core_layer 	slots_sent[face$o[3]->node[63]] 	185100
scalar barabasi_100nodes_network.node[19].core_layer 	slots_sent[face$o[4]->node[70]] 	188900
scalar barabasi_100nodes_network.node[19].core_layer 	slots_sent[face$o[5]->node[80]] 	188800
scalar barabasi_100nodes_network.node[19].core_layer 	slots_sent[face$o[6]->node[89]] 	188800
scalar barabasi_100nodes_network.node[19].content_store 	p_hit[19] 	0.27409355626526
scalar barabasi_100nodes_network.node[19].content_store 	hits[19] 	2918
scalar barabasi_100nodes_network.node[19].content_store 	misses[19] 	7728
scalar barabasi_100nodes_network.node[19].content_store 	decision_yes[19] 	7728
scalar barabasi_100nodes_network.node[19].content_store 	decision_no[19] 	0
scalar barabasi_100nodes_network.node[19].content_store 	decision_ratio[19] 	1
scalar barabasi_100nodes_network.node[20].core_layer 	interests[20] 	2980
scalar barabasi_100nodes_network.node[20].core_layer 	data[20] 	1894
scalar barabasi_100nodes_network.node[20].core_layer 	slots_sent[face$o[1]->client[20]] 	298000
scalar barabasi_100nodes_network.node[20].core_layer 	slots_sent[face$o[2]->node[16]] 	0
scalar barabasi_100nodes_network.node[20].content_store 	p_hit[20] 	0.36442953020134
scalar barabasi_100nodes_network.node[20].content_store 	hits[20] 	1086
scalar barabasi_100nodes_network.node[20].content_store 	misses[20] 	1894
scalar barabasi_100nodes_network.node[20].content_store 	decision_yes[20] 	1894
scalar barabasi_100nodes_network.node[20].content_store 	decision_no[20] 	0
scalar barabasi_100nodes_network.node[20].content_store 	decision_ratio[20] 	1
scalar barabasi_100nodes_network.node[21].core_layer 	interests[21] 	6768
scalar barabasi_100nodes_network.node[21].core_layer 	data[21] 	4920
scalar barabasi_100nodes_network.node[21].core_layer 	slots_sent[face$o[1]->client[21]] 	304800
scalar barabasi_100nodes_network.node[21].core_layer 	slots_sent[face$o[2]->node[0]] 	0
scalar barabasi_100nodes_network.node[21].core_layer 	slots_sent[face$o[3]->node[24]] 	186200
scalar barabasi_100nodes_network.node[21].core_layer 	slots_sent[face$o[4]->node[57]] 	185800
scalar barabasi_100nodes_network.node[21].content_store 	p_hit[21] 	0.27304964539007
scalar barabasi_100nodes_network.node[21].content_store 	hits[21] 	1848
scalar barabasi_100nodes_network.node[21].content_store 	misses[21] 	4920
scalar barabasi_100nodes_network.node[21].content_store 	decision_yes[21] 	4920
scalar barabasi_100nodes_network.node[21].content_store 	decision_no[21] 	0
scalar barabasi_100nodes_network.node[21].content_store 	decision_ratio[21] 	1
scalar barabasi_100nodes_network.node[22].core_layer 	interests[22] 	2996
scalar barabasi_100nodes_network.node[22].core_layer 	data[22] 	1877
scalar barabasi_100nodes_network.node[22].core_layer 	slots_sent[face$o[1]->client[22]] 	299600
scalar barabasi_100nodes_network.node[22].core_layer 	slots_sent[face$o[2]->node[0]] 	0
scalar barabasi_100nodes_network.node[22].content_store 	p_hit[22] 	0.37349799732977
scalar barabasi_100nodes_network.node[22].content_store 	hits[22] 	1119
scalar barabasi_100nodes_network.node[22].content_store 	misses[22] 	1877
scalar barabasi_100nodes_network.node[22].content_store 	decision_yes[22] 	1877
scalar barabasi_100nodes_network.node[22].content_store 	decision_no[22] 	0
scalar barabasi_100nodes_network.node[22].content_store 	decision_ratio[22] 	1
scalar barabasi_100nodes_network.node[23].core_layer 	interests[23] 	38246
scalar barabasi_100nodes_network.node[23].core_layer 	data[23] 	33971
scalar barabasi_100nodes_network.node[23].core_layer 	slots_sent[face$o[1]->client[23]] 	299000
scalar barabasi_100nodes_network.node[23].core_layer 	slots_sent[face$o[2]->node[7]] 	2471500
scalar barabasi_100nodes_network.node[23].core_layer 	slots_sent[face$o[3]->node[46]] 	351300
scalar barabasi_100nodes_network.node[23].core_layer 	slots_sent[face$o[4]->node[47]] 	138600
scalar barabasi_100nodes_network.node[23].core_layer 	slots_sent[face$o[5]->node[51]] 	189500
scalar barabasi_100nodes_network.node[23].core_layer 	slots_sent[face$o[6]->node[83]] 	193100
scalar barabasi_100nodes_network.node[23].core_layer 	slots_sent[face$o[7]->node[86]] 	181600
scalar barabasi_100nodes_network.node[23].content_store 	p_hit[23] 	0.11177639491712
scalar barabasi_100nodes_network.node[23].content_store 	hits[23] 	4275
scalar barabasi_100nodes_network.node[23].content_store 	misses[23] 	33971
scalar barabasi_100nodes_network.node[23].content_store 	decision_yes[23] 	33971
scalar barabasi_100nodes_network.node[23].content_store 	decision_no[23] 	0
scalar barabasi_100nodes_network.node[23].content_store 	decision_ratio[23] 	1
scalar barabasi_100nodes_network.node[24].core_layer 	interests[24] 	3107
scalar barabasi_100nodes_network.node[24].core_layer 	data[24] 	1862
scalar barabasi_100nodes_network.node[24].core_layer 	slots_sent[face$o[1]->client[24]] 	310700
scalar barabasi_100nodes_network.node[24].core_layer 	slots_sent[face$o[2]->node[21]] 	0
scalar barabasi_100nodes_network.node[24].content_store 	p_hit[24] 	0.40070807853235
scalar barabasi_100nodes_network.node[24].content_store 	hits[24] 	1245
scalar barabasi_100nodes_network.node[24].content_store 	misses[24] 	1862
scalar barabasi_100nodes_network.node[24].content_store 	decision_yes[24] 	1862
scalar barabasi_100nodes_network.node[24].content_store 	decision_no[24] 	0
scalar barabasi_100nodes_network.node[24].content_store 	decision_ratio[24] 	1
scalar barabasi_100nodes_network.node[25].core_layer 	interests[25] 	34975
scalar barabasi_100nodes_network.node[25].core_layer 	repo_load[25] 	31281
scalar barabasi_100nodes_network.node[25].core_layer 	data[25] 	2562
scalar barabasi_100nodes_network.node[25].core_layer 	slots_sent[face$o[1]->client[25]] 	306900
scalar barabasi_100nodes_network.node[25].core_layer 	slots_sent[face$o[2]->node[2]] 	3058000
scalar barabasi_100nodes_network.node[25].core_layer 	slots_sent[face$o[3]->node[38]] 	132600
scalar barabasi_100nodes_network.node[25].content_store 	p_hit[25] 	0.032365975696926
scalar barabasi_100nodes_network.node[25].content_store 	hits[25] 	1132
scalar barabasi_100nodes_network.node[25].content_store 	misses[25] 	33843
scalar barabasi_100nodes_network.node[25].content_store 	decision_yes[25] 	2562
scalar barabasi_100nodes_network.node[25].content_store 	decision_no[25] 	31281
scalar barabasi_100nodes_network.node[25].content_store 	decision_ratio[25] 	0.075702508642851
scalar barabasi_100nodes_network.node[26].core_layer 	interests[26] 	7487
scalar barabasi_100nodes_network.node[26].core_layer 	data[26] 	5616
scalar barabasi_100nodes_network.node[26].core_layer 	slots_sent[face$o[1]->client[26]] 	303700
scalar barabasi_100nodes_network.node[26].core_layer 	slots_sent[face$o[2]->node[2]] 	0
scalar barabasi_100nodes_network.node[26].core_layer 	slots_sent[face$o[3]->node[77]] 	257100
scalar barabasi_100nodes_network.node[26].core_layer 	slots_sent[face$o[4]->node[91]] 	187900
scalar barabasi_100nodes_network.node[26].content_store 	p_hit[26] 	0.2498998263657
scalar barabasi_100nodes_network.node[26].content_store 	hits[26] 	1871
scalar barabasi_100nodes_network.node[26].content_store 	misses[26] 	5616
scalar barabasi_100nodes_network.node[26].content_store 	decision_yes[26] 	5616
scalar barabasi_100nodes_network.node[26].content_store 	decision_no[26] 	0
scalar barabasi_100nodes_network.node[26].content_store 	decision_ratio[26] 	1
scalar barabasi_100nodes_network.node[27].core_layer 	interests[27] 	4996
scalar barabasi_100nodes_network.node[27].core_layer 	data[27] 	3521
scalar barabasi_100nodes_network.node[27].core_layer 	slots_sent[face$o[1]->client[27]] 	306000
scalar barabasi_100nodes_network.node[27].core_layer 	slots_sent[face$o[2]->node[4]] 	0
scalar barabasi_100nodes_network.node[27].core_layer 	slots_sent[face$o[3]->node[99]] 	193600
scalar barabasi_100nodes_network.node[27].content_store 	p_hit[27] 	0.29523618895116
scalar barabasi_100nodes_network.node[27].content_store 	hits[27] 	1475
scalar barabasi_100nodes_network.node[27].content_store 	misses[27] 	3521
scalar barabasi_100nodes_network.node[27].content_store 	decision_yes[27] 	3521
scalar barabasi_100nodes_network.node[27].content_store 	decision_no[27] 	0
scalar barabasi_100nodes_network.node[27].content_store 	decision_ratio[27] 	1
scalar barabasi_100nodes_network.node[28].core_layer 	interests[28] 	3030
scalar barabasi_100nodes_network.node[28].core_layer 	data[28] 	1825
scalar barabasi_100nodes_network.node[28].core_layer 	slots_sent[face$o[1]->client[28]] 	303000
scalar barabasi_100nodes_network.node[28].core_layer 	slots_sent[face$o[2]->node[0]] 	0
scalar barabasi_100nodes_network.node[28].content_store 	p_hit[28] 	0.3976897689769
scalar barabasi_100nodes_network.node[28].content_store 	hits[28] 	1205
scalar barabasi_100nodes_network.node[28].content_store 	misses[28] 	1825
scalar barabasi_100nodes_network.node[28].content_store 	decision_yes[28] 	1825
scalar barabasi_100nodes_network.node[28].content_store 	decision_no[28] 	0
scalar barabasi_100nodes_network.node[28].content_store 	decision_ratio[28] 	1
scalar barabasi_100nodes_network.node[29].core_layer 	interests[29] 	3091
scalar barabasi_100nodes_network.node[29].core_layer 	repo_load[29] 	634
scalar barabasi_100nodes_network.node[29].core_layer 	data[29] 	1455
scalar barabasi_100nodes_network.node[29].core_layer 	slots_sent[face$o[1]->client[29]] 	309100
scalar barabasi_100nodes_network.node[29].core_layer 	slots_sent[face$o[2]->node[2]] 	0
scalar barabasi_100nodes_network.node[29].content_store 	p_hit[29] 	0.32416693626658
scalar barabasi_100nodes_network.node[29].content_store 	hits[29] 	1002
scalar barabasi_100nodes_network.node[29].content_store 	misses[29] 	2089
scalar barabasi_100nodes_network.node[29].content_store 	decision_yes[29] 	1455
scalar barabasi_100nodes_network.node[29].content_store 	decision_no[29] 	634
scalar barabasi_100nodes_network.node[29].content_store 	decision_ratio[29] 	0.69650550502633
scalar barabasi_100nodes_network.node[30].core_layer 	interests[30] 	4316
scalar barabasi_100nodes_network.node[30].core_layer 	data[30] 	2919
scalar barabasi_100nodes_network.node[30].core_layer 	slots_sent[face$o[1]->client[30]] 	294700
scalar barabasi_100nodes_network.node[30].core_layer 	slots_sent[face$o[2]->node[4]] 	0
scalar barabasi_100nodes_network.node[30].core_layer 	slots_sent[face$o[3]->node[88]] 	136900
scalar barabasi_100nodes_network.node[30].content_store 	p_hit[30] 	0.32367933271548
scalar barabasi_100nodes_network.node[30].content_store 	hits[30] 	1397
scalar barabasi_100nodes_network.node[30].content_store 	misses[30] 	2919
scalar barabasi_100nodes_network.node[30].content_store 	decision_yes[30] 	2919
scalar barabasi_100nodes_network.node[30].content_store 	decision_no[30] 	0
scalar barabasi_100nodes_network.node[30].content_store 	decision_ratio[30] 	1
scalar barabasi_100nodes_network.node[31].core_layer 	interests[31] 	6638
scalar barabasi_100nodes_network.node[31].core_layer 	data[31] 	5192
scalar barabasi_100nodes_network.node[31].core_layer 	slots_sent[face$o[1]->client[31]] 	300200
scalar barabasi_100nodes_network.node[31].core_layer 	slots_sent[face$o[2]->node[7]] 	0
scalar barabasi_100nodes_network.node[31].core_layer 	slots_sent[face$o[3]->node[65]] 	363600
scalar barabasi_100nodes_network.node[31].content_store 	p_hit[31] 	0.21783669780054
scalar barabasi_100nodes_network.node[31].content_store 	hits[31] 	1446
scalar barabasi_100nodes_network.node[31].content_store 	misses[31] 	5192
scalar barabasi_100nodes_network.node[31].content_store 	decision_yes[31] 	5192
scalar barabasi_100nodes_network.node[31].content_store 	decision_no[31] 	0
scalar barabasi_100nodes_network.node[31].content_store 	decision_ratio[31] 	1
scalar barabasi_100nodes_network.node[32].core_layer 	interests[32] 	6838
scalar barabasi_100nodes_network.node[32].core_layer 	data[32] 	4953
scalar barabasi_100nodes_network.node[32].core_layer 	slots_sent[face$o[1]->client[32]] 	303000
scalar barabasi_100nodes_network.node[32].core_layer 	slots_sent[face$o[2]->node[2]] 	0
scalar barabasi_100nodes_network.node[32].core_layer 	slots_sent[face$o[3]->node[43]] 	191200
scalar barabasi_100nodes_network.node[32].core_layer 	slots_sent[face$o[4]->node[64]] 	189600
scalar barabasi_100nodes_network.node[32].content_store 	p_hit[32] 	0.27566539923954
scalar barabasi_100nodes_network.node[32].content_store 	hits[32] 	1885
scalar barabasi_100nodes_network.node[32].content_store 	misses[32] 	4953
scalar barabasi_100nodes_network.node[32].content_store 	decision_yes[32] 	4953
scalar barabasi_100nodes_network.node[32].content_store 	decision_no[32] 	0
scalar barabasi_100nodes_network.node[32].content_store 	decision_ratio[32] 	1
scalar barabasi_100nodes_network.node[33].core_layer 	interests[33] 	2992
scalar barabasi_100nodes_network.node[33].core_layer 	data[33] 	1862
scalar barabasi_100nodes_network.node[33].core_layer 	slots_sent[face$o[1]->client[33]] 	299200
scalar barabasi_100nodes_network.node[33].core_layer 	slots_sent[face$o[2]->node[2]] 	0
scalar barabasi_100nodes_network.node[33].content_store 	p_hit[33] 	0.37767379679144
scalar barabasi_100nodes_network.node[33].content_store 	hits[33] 	1130
scalar barabasi_100nodes_network.node[33].content_store 	misses[33] 	1862
scalar barabasi_100nodes_network.node[33].content_store 	decision_yes[33] 	1862
scalar barabasi_100nodes_network.node[33].content_store 	decision_no[33] 	0
scalar barabasi_100nodes_network.node[33].content_store 	decision_ratio[33] 	1
scalar barabasi_100nodes_network.node[34].core_layer 	interests[34] 	3108
scalar barabasi_100nodes_network.node[34].core_layer 	data[34] 	1899
scalar barabasi_100nodes_network.node[34].core_layer 	slots_sent[face$o[1]->client[34]] 	310800
scalar barabasi_100nodes_network.node[34].core_layer 	slots_sent[face$o[2]->node[2]] 	0
scalar barabasi_100nodes_network.node[34].content_store 	p_hit[34] 	0.38899613899614
scalar barabasi_100nodes_network.node[34].content_store 	hits[34] 	1209
scalar barabasi_100nodes_network.node[34].content_store 	misses[34] 	1899
scalar barabasi_100nodes_network.node[34].content_store 	decision_yes[34] 	1899
scalar barabasi_100nodes_network.node[34].content_store 	decision_no[34] 	0
scalar barabasi_100nodes_network.node[34].content_store 	decision_ratio[34] 	1
scalar barabasi_100nodes_network.node[35].core_layer 	interests[35] 	4938
scalar barabasi_100nodes_network.node[35].core_layer 	data[35] 	3509
scalar barabasi_100nodes_network.node[35].core_layer 	slots_sent[face$o[1]->client[35]] 	301100
scalar barabasi_100nodes_network.node[35].core_layer 	slots_sent[face$o[2]->node[5]] 	0
scalar barabasi_100nodes_network.node[35].core_layer 	slots_sent[face$o[3]->node[50]] 	192700
scalar barabasi_100nodes_network.node[35].content_store 	p_hit[35] 	0.2893884163629
scalar barabasi_100nodes_network.node[35].content_store 	hits[35] 	1429
scalar barabasi_100nodes_network.node[35].content_store 	misses[35] 	3509
scalar barabasi_100nodes_network.node[35].content_store 	decision_yes[35] 	3509
scalar barabasi_100nodes_network.node[35].content_store 	decision_no[35] 	0
scalar barabasi_100nodes_network.node[35].content_store 	decision_ratio[35] 	1
scalar barabasi_100nodes_network.node[36].core_layer 	interests[36] 	4939
scalar barabasi_100nodes_network.node[36].core_layer 	data[36] 	3443
scalar barabasi_100nodes_network.node[36].core_layer 	slots_sent[face$o[1]->client[36]] 	311000
scalar barabasi_100nodes_network.node[36].core_layer 	slots_sent[face$o[2]->node[2]] 	0
scalar barabasi_100nodes_network.node[36].core_layer 	slots_sent[face$o[3]->node[75]] 	182900
scalar barabasi_100nodes_network.node[36].content_store 	p_hit[36] 	0.30289532293987
scalar barabasi_100nodes_network.node[36].content_store 	hits[36] 	1496
scalar barabasi_100nodes_network.node[36].content_store 	misses[36] 	3443
scalar barabasi_100nodes_network.node[36].content_store 	decision_yes[36] 	3443
scalar barabasi_100nodes_network.node[36].content_store 	decision_no[36] 	0
scalar barabasi_100nodes_network.node[36].content_store 	decision_ratio[36] 	1
scalar barabasi_100nodes_network.node[37].core_layer 	interests[37] 	3035
scalar barabasi_100nodes_network.node[37].core_layer 	data[37] 	1886
scalar barabasi_100nodes_network.node[37].core_layer 	slots_sent[face$o[1]->client[37]] 	303500
scalar barabasi_100nodes_network.node[37].core_layer 	slots_sent[face$o[2]->node[0]] 	0
scalar barabasi_100nodes_network.node[37].content_store 	p_hit[37] 	0.37858319604613
scalar barabasi_100nodes_network.node[37].content_store 	hits[37] 	1149
scalar barabasi_100nodes_network.node[37].content_store 	misses[37] 	1886
scalar barabasi_100nodes_network.node[37].content_store 	decision_yes[37] 	1886
scalar barabasi_100nodes_network.node[37].content_store 	decision_no[37] 	0
scalar barabasi_100nodes_network.node[37].content_store 	decision_ratio[37] 	1
scalar barabasi_100nodes_network.node[38].core_layer 	interests[38] 	2871
scalar barabasi_100nodes_network.node[38].core_layer 	repo_load[38] 	662
scalar barabasi_100nodes_network.node[38].core_layer 	data[38] 	1326
scalar barabasi_100nodes_network.node[38].core_layer 	slots_sent[face$o[1]->client[38]] 	287100
scalar barabasi_100nodes_network.node[38].core_layer 	slots_sent[face$o[2]->node[25]] 	0
scalar barabasi_100nodes_network.node[38].content_store 	p_hit[38] 	0.3075583420411
scalar barabasi_100nodes_network.node[38].content_store 	hits[38] 	883
scalar barabasi_100nodes_network.node[38].content_store 	misses[38] 	1988
scalar barabasi_100nodes_network.node[38].content_store 	decision_yes[38] 	1326
scalar barabasi_100nodes_network.node[38].content_store 	decision_no[38] 	662
scalar barabasi_100nodes_network.node[38].content_store 	decision_ratio[38] 	0.66700201207243
scalar barabasi_100nodes_network.node[39].core_layer 	interests[39] 	4886
scalar barabasi_100nodes_network.node[39].core_layer 	data[39] 	3477
scalar barabasi_100nodes_network.node[39].core_layer 	slots_sent[face$o[1]->client[39]] 	295000
scalar barabasi_100nodes_network.node[39].core_layer 	slots_sent[face$o[2]->node[8]] 	0
scalar barabasi_100nodes_network.node[39].core_layer 	slots_sent[face$o[3]->node[60]] 	193600
scalar barabasi_100nodes_network.node[39].content_store 	p_hit[39] 	0.2883749488334
scalar barabasi_100nodes_network.node[39].content_store 	hits[39] 	1409
scalar barabasi_100nodes_network.node[39].content_store 	misses[39] 	3477
scalar barabasi_100nodes_network.node[39].content_store 	decision_yes[39] 	3477
scalar barabasi_100nodes_network.node[39].content_store 	decision_no[39] 	0
scalar barabasi_100nodes_network.node[39].content_store 	decision_ratio[39] 	1
scalar barabasi_100nodes_network.node[40].core_layer 	interests[40] 	3081
scalar barabasi_100nodes_network.node[40].core_layer 	data[40] 	1939
scalar barabasi_100nodes_network.node[40].core_layer 	slots_sent[face$o[1]->client[40]] 	308100
scalar barabasi_100nodes_network.node[40].core_layer 	slots_sent[face$o[2]->node[15]] 	0
scalar barabasi_100nodes_network.node[40].content_store 	p_hit[40] 	0.37065887698799
scalar barabasi_100nodes_network.node[40].content_store 	hits[40] 	1142
scalar barabasi_100nodes_network.node[40].content_store 	misses[40] 	1939
scalar barabasi_100nodes_network.node[40].content_store 	decision_yes[40] 	1939
scalar barabasi_100nodes_network.node[40].content_store 	decision_no[40] 	0
scalar barabasi_100nodes_network.node[40].content_store 	decision_ratio[40] 	1
scalar barabasi_100nodes_network.node[41].core_layer 	interests[41] 	12920
scalar barabasi_100nodes_network.node[41].core_layer 	data[41] 	9527
scalar barabasi_100nodes_network.node[41].core_layer 	slots_sent[face$o[1]->client[41]] 	297200
scalar barabasi_100nodes_network.node[41].core_layer 	slots_sent[face$o[2]->node[2]] 	0
scalar barabasi_100nodes_network.node[41].core_layer 	slots_sent[face$o[3]->node[42]] 	181000
scalar barabasi_100nodes_network.node[41].core_layer 	slots_sent[face$o[4]->node[48]] 	180500
scalar barabasi_100nodes_network.node[41].core_layer 	slots_sent[face$o[5]->node[54]] 	258400
scalar barabasi_100nodes_network.node[41].core_layer 	slots_sent[face$o[6]->node[55]] 	185900
scalar barabasi_100nodes_network.node[41].core_layer 	slots_sent[face$o[7]->node[69]] 	189000
scalar barabasi_100nodes_network.node[41].content_store 	p_hit[41] 	0.26261609907121
scalar barabasi_100nodes_network.node[41].content_store 	hits[41] 	3393
scalar barabasi_100nodes_network.node[41].content_store 	misses[41] 	9527
scalar barabasi_100nodes_network.node[41].content_store 	decision_yes[41] 	9527
scalar barabasi_100nodes_network.node[41].content_store 	decision_no[41] 	0
scalar barabasi_100nodes_network.node[41].content_store 	decision_ratio[41] 	1
scalar barabasi_100nodes_network.node[42].core_layer 	interests[42] 	2958
scalar barabasi_100nodes_network.node[42].core_layer 	data[42] 	1810
scalar barabasi_100nodes_network.node[42].core_layer 	slots_sent[face$o[1]->client[42]] 	295800
scalar barabasi_100nodes_network.node[42].core_layer 	slots_sent[face$o[2]->node[41]] 	0
scalar barabasi_100nodes_network.node[42].content_store 	p_hit[42] 	0.38810006761325
scalar barabasi_100nodes_network.node[42].content_store 	hits[42] 	1148
scalar barabasi_100nodes_network.node[42].content_store 	misses[42] 	1810
scalar barabasi_100nodes_network.node[42].content_store 	decision_yes[42] 	1810
scalar barabasi_100nodes_network.node[42].content_store 	decision_no[42] 	0
scalar barabasi_100nodes_network.node[42].content_store 	decision_ratio[42] 	1
scalar barabasi_100nodes_network.node[43].core_layer 	interests[43] 	3044
scalar barabasi_100nodes_network.node[43].core_layer 	data[43] 	1912
scalar barabasi_100nodes_network.node[43].core_layer 	slots_sent[face$o[1]->client[43]] 	304400
scalar barabasi_100nodes_network.node[43].core_layer 	slots_sent[face$o[2]->node[32]] 	0
scalar barabasi_100nodes_network.node[43].content_store 	p_hit[43] 	0.3718791064389
scalar barabasi_100nodes_network.node[43].content_store 	hits[43] 	1132
scalar barabasi_100nodes_network.node[43].content_store 	misses[43] 	1912
scalar barabasi_100nodes_network.node[43].content_store 	decision_yes[43] 	1912
scalar barabasi_100nodes_network.node[43].content_store 	decision_no[43] 	0
scalar barabasi_100nodes_network.node[43].content_store 	decision_ratio[43] 	1
scalar barabasi_100nodes_network.node[44].core_layer 	interests[44] 	3007
scalar barabasi_100nodes_network.node[44].core_layer 	data[44] 	1863
scalar barabasi_100nodes_network.node[44].core_layer 	slots_sent[face$o[1]->client[44]] 	300700
scalar barabasi_100nodes_network.node[44].core_layer 	slots_sent[face$o[2]->node[0]] 	0
scalar barabasi_100nodes_network.node[44].content_store 	p_hit[44] 	0.38044562687064
scalar barabasi_100nodes_network.node[44].content_store 	hits[44] 	1144
scalar barabasi_100nodes_network.node[44].content_store 	misses[44] 	1863
scalar barabasi_100nodes_network.node[44].content_store 	decision_yes[44] 	1863
scalar barabasi_100nodes_network.node[44].content_store 	decision_no[44] 	0
scalar barabasi_100nodes_network.node[44].content_store 	decision_ratio[44] 	1
scalar barabasi_100nodes_network.node[45].core_layer 	interests[45] 	3054
scalar barabasi_100nodes_network.node[45].core_layer 	data[45] 	1873
scalar barabasi_100nodes_network.node[45].core_layer 	slots_sent[face$o[1]->client[45]] 	305400
scalar barabasi_100nodes_network.node[45].core_layer 	slots_sent[face$o[2]->node[2]] 	0
scalar barabasi_100nodes_network.node[45].content_store 	p_hit[45] 	0.38670595939751
scalar barabasi_100nodes_network.node[45].content_store 	hits[45] 	1181
scalar barabasi_100nodes_network.node[45].content_store 	misses[45] 	1873
scalar barabasi_100nodes_network.node[45].content_store 	decision_yes[45] 	1873
scalar barabasi_100nodes_network.node[45].content_store 	decision_no[45] 	0
scalar barabasi_100nodes_network.node[45].content_store 	decision_ratio[45] 	1
scalar barabasi_100nodes_network.node[46].core_layer 	interests[46] 	4941
scalar barabasi_100nodes_network.node[46].core_layer 	data[46] 	3513
scalar barabasi_100nodes_network.node[46].core_layer 	slots_sent[face$o[1]->client[46]] 	297800
scalar barabasi_100nodes_network.node[46].core_layer 	slots_sent[face$o[2]->node[23]] 	0
scalar barabasi_100nodes_network.node[46].core_layer 	slots_sent[face$o[3]->node[82]] 	196300
scalar barabasi_100nodes_network.node[46].content_store 	p_hit[46] 	0.28901032179721
scalar barabasi_100nodes_network.node[46].content_store 	hits[46] 	1428
scalar barabasi_100nodes_network.node[46].content_store 	misses[46] 	3513
scalar barabasi_100nodes_network.node[46].content_store 	decision_yes[46] 	3513
scalar barabasi_100nodes_network.node[46].content_store 	decision_no[46] 	0
scalar barabasi_100nodes_network.node[46].content_store 	decision_ratio[46] 	1
scalar barabasi_100nodes_network.node[47].core_layer 	interests[47] 	28425
scalar barabasi_100nodes_network.node[47].core_layer 	repo_load[47] 	26305
scalar barabasi_100nodes_network.node[47].core_layer 	data[47] 	1386
scalar barabasi_100nodes_network.node[47].core_layer 	slots_sent[face$o[1]->client[47]] 	298800
scalar barabasi_100nodes_network.node[47].core_layer 	slots_sent[face$o[2]->node[23]] 	2543700
scalar barabasi_100nodes_network.node[47].content_store 	p_hit[47] 	0.025822339489886
scalar barabasi_100nodes_network.node[47].content_store 	hits[47] 	734
scalar barabasi_100nodes_network.node[47].content_store 	misses[47] 	27691
scalar barabasi_100nodes_network.node[47].content_store 	decision_yes[47] 	1386
scalar barabasi_100nodes_network.node[47].content_store 	decision_no[47] 	26305
scalar barabasi_100nodes_network.node[47].content_store 	decision_ratio[47] 	0.050052363583836
scalar barabasi_100nodes_network.node[48].core_layer 	interests[48] 	2852
scalar barabasi_100nodes_network.node[48].core_layer 	data[48] 	1805
scalar barabasi_100nodes_network.node[48].core_layer 	slots_sent[face$o[1]->client[48]] 	285200
scalar barabasi_100nodes_network.node[48].core_layer 	slots_sent[face$o[2]->node[41]] 	0
scalar barabasi_100nodes_network.node[48].content_store 	p_hit[48] 	0.36711079943899
scalar barabasi_100nodes_network.node[48].content_store 	hits[48] 	1047
scalar barabasi_100nodes_network.node[48].content_store 	misses[48] 	1805
scalar barabasi_100nodes_network.node[48].content_store 	decision_yes[48] 	1805
scalar barabasi_100nodes_network.node[48].content_store 	decision_no[48] 	0
scalar barabasi_100nodes_network.node[48].content_store 	decision_ratio[48] 	1
scalar barabasi_100nodes_network.node[49].core_layer 	interests[49] 	3017
scalar barabasi_100nodes_network.node[49].core_layer 	data[49] 	1828
scalar barabasi_100nodes_network.node[49].core_layer 	slots_sent[face$o[1]->client[49]] 	301700
scalar barabasi_100nodes_network.node[49].core_layer 	slots_sent[face$o[2]->node[7]] 	0
scalar barabasi_100nodes_network.node[49].content_store 	p_hit[49] 	0.39410009943653
scalar barabasi_100nodes_network.node[49].content_store 	hits[49] 	1189
scalar barabasi_100nodes_network.node[49].content_store 	misses[49] 	1828
scalar barabasi_100nodes_network.node[49].content_store 	decision_yes[49] 	1828
scalar barabasi_100nodes_network.node[49].content_store 	decision_no[49] 	0
scalar barabasi_100nodes_network.node[49].content_store 	decision_ratio[49] 	1
scalar barabasi_100nodes_network.node[50].core_layer 	interests[50] 	3088
scalar barabasi_100nodes_network.node[50].core_layer 	data[50] 	1927
scalar barabasi_100nodes_network.node[50].core_layer 	slots_sent[face$o[1]->client[50]] 	308800
scalar barabasi_100nodes_network.node[50].core_layer 	slots_sent[face$o[2]->node[35]] 	0
scalar barabasi_100nodes_network.node[50].content_store 	p_hit[50] 	0.37597150259067
scalar barabasi_100nodes_network.node[50].content_store 	hits[50] 	1161
scalar barabasi_100nodes_network.node[50].content_store 	misses[50] 	1927
scalar barabasi_100nodes_network.node[50].content_store 	decision_yes[50] 	1927
scalar barabasi_100nodes_network.node[50].content_store 	decision_no[50] 	0
scalar barabasi_100nodes_network.node[50].content_store 	decision_ratio[50] 	1
scalar barabasi_100nodes_network.node[51].core_layer 	interests[51] 	3103
scalar barabasi_100nodes_network.node[51].core_layer 	data[51] 	1895
scalar barabasi_100nodes_network.node[51].core_layer 	slots_sent[face$o[1]->client[51]] 	310300
scalar barabasi_100nodes_network.node[51].core_layer 	slots_sent[face$o[2]->node[23]] 	0
scalar barabasi_100nodes_network.node[51].content_store 	p_hit[51] 	0.38930067676442
scalar barabasi_100nodes_network.node[51].content_store 	hits[51] 	1208
scalar barabasi_100nodes_network.node[51].content_store 	misses[51] 	1895
scalar barabasi_100nodes_network.node[51].content_store 	decision_yes[51] 	1895
scalar barabasi_100nodes_network.node[51].content_store 	decision_no[51] 	0
scalar barabasi_100nodes_network.node[51].content_store 	decision_ratio[51] 	1
scalar barabasi_100nodes_network.node[52].core_layer 	interests[52] 	3045
[...]
scalar barabasi_100nodes_network.client[8] 	hdistance[8].real 	1.5997234704459
scalar barabasi_100nodes_network.client[8] 	downloads[8].real 	2893
scalar barabasi_100nodes_network.client[8] 	avg_time[8].real 	0
scalar barabasi_100nodes_network.client[9] 	hdistance[9].real 	2.6447926869083
scalar barabasi_100nodes_network.client[9] 	downloads[9].real 	3063
scalar barabasi_100nodes_network.client[9] 	avg_time[9].real 	0
scalar barabasi_100nodes_network.client[10] 	hdistance[10].real 	2.0969618616677
scalar barabasi_100nodes_network.client[10] 	downloads[10].real 	3094
scalar barabasi_100nodes_network.client[10] 	avg_time[10].real 	0
scalar barabasi_100nodes_network.client[11] 	hdistance[11].real 	2.1728271728272
scalar barabasi_100nodes_network.client[11] 	downloads[11].real 	3003
scalar barabasi_100nodes_network.client[11] 	avg_time[11].real 	0
scalar barabasi_100nodes_network.client[12] 	hdistance[12].real 	2.1528250510551
scalar barabasi_100nodes_network.client[12] 	downloads[12].real 	2938
scalar barabasi_100nodes_network.client[12] 	avg_time[12].real 	0
scalar barabasi_100nodes_network.client[13] 	hdistance[13].real 	1.6248007650622
scalar barabasi_100nodes_network.client[13] 	downloads[13].real 	3137
scalar barabasi_100nodes_network.client[13] 	avg_time[13].real 	0
scalar barabasi_100nodes_network.client[14] 	hdistance[14].real 	2.2329317269076
scalar barabasi_100nodes_network.client[14] 	downloads[14].real 	2988
scalar barabasi_100nodes_network.client[14] 	avg_time[14].real 	0
scalar barabasi_100nodes_network.client[15] 	hdistance[15].real 	2.1131896005073
scalar barabasi_100nodes_network.client[15] 	downloads[15].real 	3154
scalar barabasi_100nodes_network.client[15] 	avg_time[15].real 	0
scalar barabasi_100nodes_network.client[16] 	hdistance[16].real 	1.5539182853315
scalar barabasi_100nodes_network.client[16] 	downloads[16].real 	2986
scalar barabasi_100nodes_network.client[16] 	avg_time[16].real 	0
scalar barabasi_100nodes_network.client[17] 	hdistance[17].real 	2.2417185962611
scalar barabasi_100nodes_network.client[17] 	downloads[17].real 	3049
scalar barabasi_100nodes_network.client[17] 	avg_time[17].real 	0
scalar barabasi_100nodes_network.client[18] 	hdistance[18].real 	1.5753145188711
scalar barabasi_100nodes_network.client[18] 	downloads[18].real 	2941
scalar barabasi_100nodes_network.client[18] 	avg_time[18].real 	0
scalar barabasi_100nodes_network.client[19] 	hdistance[19].real 	2.1261980830671
scalar barabasi_100nodes_network.client[19] 	downloads[19].real 	3130
scalar barabasi_100nodes_network.client[19] 	avg_time[19].real 	0
scalar barabasi_100nodes_network.client[20] 	hdistance[20].real 	2.2922818791946
scalar barabasi_100nodes_network.client[20] 	downloads[20].real 	2980
scalar barabasi_100nodes_network.client[20] 	avg_time[20].real 	0
scalar barabasi_100nodes_network.client[21] 	hdistance[21].real 	2.1099081364829
scalar barabasi_100nodes_network.client[21] 	downloads[21].real 	3048
scalar barabasi_100nodes_network.client[21] 	avg_time[21].real 	0
scalar barabasi_100nodes_network.client[22] 	hdistance[22].real 	2.2613484646195
scalar barabasi_100nodes_network.client[22] 	downloads[22].real 	2996
scalar barabasi_100nodes_network.client[22] 	avg_time[22].real 	0
scalar barabasi_100nodes_network.client[23] 	hdistance[23].real 	1.8478260869565
scalar barabasi_100nodes_network.client[23] 	downloads[23].real 	2990
scalar barabasi_100nodes_network.client[23] 	avg_time[23].real 	0
scalar barabasi_100nodes_network.client[24] 	hdistance[24].real 	2.6041197296427
scalar barabasi_100nodes_network.client[24] 	downloads[24].real 	3107
scalar barabasi_100nodes_network.client[24] 	avg_time[24].real 	0
scalar barabasi_100nodes_network.client[25] 	hdistance[25].real 	1.6744868035191
scalar barabasi_100nodes_network.client[25] 	downloads[25].real 	3069
scalar barabasi_100nodes_network.client[25] 	avg_time[25].real 	0
scalar barabasi_100nodes_network.client[26] 	hdistance[26].real 	1.7323016134343
scalar barabasi_100nodes_network.client[26] 	downloads[26].real 	3037
scalar barabasi_100nodes_network.client[26] 	avg_time[26].real 	0
scalar barabasi_100nodes_network.client[27] 	hdistance[27].real 	1.9467320261438
scalar barabasi_100nodes_network.client[27] 	downloads[27].real 	3060
scalar barabasi_100nodes_network.client[27] 	avg_time[27].real 	0
scalar barabasi_100nodes_network.client[28] 	hdistance[28].real 	2.1554455445544
scalar barabasi_100nodes_network.client[28] 	downloads[28].real 	3030
scalar barabasi_100nodes_network.client[28] 	avg_time[28].real 	0
scalar barabasi_100nodes_network.client[29] 	hdistance[29].real 	1.6208346813329
scalar barabasi_100nodes_network.client[29] 	downloads[29].real 	3091
scalar barabasi_100nodes_network.client[29] 	avg_time[29].real 	0
scalar barabasi_100nodes_network.client[30] 	hdistance[30].real 	1.8452663725823
scalar barabasi_100nodes_network.client[30] 	downloads[30].real 	2947
scalar barabasi_100nodes_network.client[30] 	avg_time[30].real 	0
scalar barabasi_100nodes_network.client[31] 	hdistance[31].real 	2.0156562291805
scalar barabasi_100nodes_network.client[31] 	downloads[31].real 	3002
scalar barabasi_100nodes_network.client[31] 	avg_time[31].real 	0
scalar barabasi_100nodes_network.client[32] 	hdistance[32].real 	1.7006600660066
scalar barabasi_100nodes_network.client[32] 	downloads[32].real 	3030
scalar barabasi_100nodes_network.client[32] 	avg_time[32].real 	0
scalar barabasi_100nodes_network.client[33] 	hdistance[33].real 	1.9034090909091
scalar barabasi_100nodes_network.client[33] 	downloads[33].real 	2992
scalar barabasi_100nodes_network.client[33] 	avg_time[33].real 	0
scalar barabasi_100nodes_network.client[34] 	hdistance[34].real 	1.8198198198198
scalar barabasi_100nodes_network.client[34] 	downloads[34].real 	3108
scalar barabasi_100nodes_network.client[34] 	avg_time[34].real 	0
scalar barabasi_100nodes_network.client[35] 	hdistance[35].real 	2.6203918963799
scalar barabasi_100nodes_network.client[35] 	downloads[35].real 	3011
scalar barabasi_100nodes_network.client[35] 	avg_time[35].real 	0
scalar barabasi_100nodes_network.client[36] 	hdistance[36].real 	1.7408360128617
scalar barabasi_100nodes_network.client[36] 	downloads[36].real 	3110
scalar barabasi_100nodes_network.client[36] 	avg_time[36].real 	0
scalar barabasi_100nodes_network.client[37] 	hdistance[37].real 	2.2039538714992
scalar barabasi_100nodes_network.client[37] 	downloads[37].real 	3035
scalar barabasi_100nodes_network.client[37] 	avg_time[37].real 	0
scalar barabasi_100nodes_network.client[38] 	hdistance[38].real 	2.0776732845698
scalar barabasi_100nodes_network.client[38] 	downloads[38].real 	2871
scalar barabasi_100nodes_network.client[38] 	avg_time[38].real 	0
scalar barabasi_100nodes_network.client[39] 	hdistance[39].real 	2.1461016949153
scalar barabasi_100nodes_network.client[39] 	downloads[39].real 	2950
scalar barabasi_100nodes_network.client[39] 	avg_time[39].real 	0
scalar barabasi_100nodes_network.client[40] 	hdistance[40].real 	2.7640376501136
scalar barabasi_100nodes_network.client[40] 	downloads[40].real 	3081
scalar barabasi_100nodes_network.client[40] 	avg_time[40].real 	0
scalar barabasi_100nodes_network.client[41] 	hdistance[41].real 	1.6345895020188
scalar barabasi_100nodes_network.client[41] 	downloads[41].real 	2972
scalar barabasi_100nodes_network.client[41] 	avg_time[41].real 	0
scalar barabasi_100nodes_network.client[42] 	hdistance[42].real 	2.2450980392157
scalar barabasi_100nodes_network.client[42] 	downloads[42].real 	2958
scalar barabasi_100nodes_network.client[42] 	avg_time[42].real 	0
scalar barabasi_100nodes_network.client[43] 	hdistance[43].real 	2.3731931668857
scalar barabasi_100nodes_network.client[43] 	downloads[43].real 	3044
scalar barabasi_100nodes_network.client[43] 	avg_time[43].real 	0
scalar barabasi_100nodes_network.client[44] 	hdistance[44].real 	2.2750249418025
scalar barabasi_100nodes_network.client[44] 	downloads[44].real 	3007
scalar barabasi_100nodes_network.client[44] 	avg_time[44].real 	0
scalar barabasi_100nodes_network.client[45] 	hdistance[45].real 	1.8457760314342
scalar barabasi_100nodes_network.client[45] 	downloads[45].real 	3054
scalar barabasi_100nodes_network.client[45] 	avg_time[45].real 	0
scalar barabasi_100nodes_network.client[46] 	hdistance[46].real 	2.2521826729349
scalar barabasi_100nodes_network.client[46] 	downloads[46].real 	2978
scalar barabasi_100nodes_network.client[46] 	avg_time[46].real 	0
scalar barabasi_100nodes_network.client[47] 	hdistance[47].real 	2.2898259705489
scalar barabasi_100nodes_network.client[47] 	downloads[47].real 	2988
scalar barabasi_100nodes_network.client[47] 	avg_time[47].real 	0
scalar barabasi_100nodes_network.client[48] 	hdistance[48].real 	2.3320476858345
scalar barabasi_100nodes_network.client[48] 	downloads[48].real 	2852
scalar barabasi_100nodes_network.client[48] 	avg_time[48].real 	0
scalar barabasi_100nodes_network.client[49] 	hdistance[49].real 	2.0109380178986
scalar barabasi_100nodes_network.client[49] 	downloads[49].real 	3017
scalar barabasi_100nodes_network.client[49] 	avg_time[49].real 	0
scalar barabasi_100nodes_network.client[50] 	hdistance[50].real 	3.2901554404145
scalar barabasi_100nodes_network.client[50] 	downloads[50].real 	3088
scalar barabasi_100nodes_network.client[50] 	avg_time[50].real 	0
scalar barabasi_100nodes_network.client[51] 	hdistance[51].real 	2.3155011279407
scalar barabasi_100nodes_network.client[51] 	downloads[51].real 	3103
scalar barabasi_100nodes_network.client[51] 	avg_time[51].real 	0
scalar barabasi_100nodes_network.client[52] 	hdistance[52].real 	2.0991789819376
scalar barabasi_100nodes_network.client[52] 	downloads[52].real 	3045
scalar barabasi_100nodes_network.client[52] 	avg_time[52].real 	0
scalar barabasi_100nodes_network.client[53] 	hdistance[53].real 	2.1470783532537
scalar barabasi_100nodes_network.client[53] 	downloads[53].real 	3012
scalar barabasi_100nodes_network.client[53] 	avg_time[53].real 	0
scalar barabasi_100nodes_network.client[54] 	hdistance[54].real 	1.8063781321185
scalar barabasi_100nodes_network.client[54] 	downloads[54].real 	3073
scalar barabasi_100nodes_network.client[54] 	avg_time[54].real 	0
scalar barabasi_100nodes_network.client[55] 	hdistance[55].real 	2.2413793103448
scalar barabasi_100nodes_network.client[55] 	downloads[55].real 	3045
scalar barabasi_100nodes_network.client[55] 	avg_time[55].real 	0
scalar barabasi_100nodes_network.client[56] 	hdistance[56].real 	2.6862487692813
scalar barabasi_100nodes_network.client[56] 	downloads[56].real 	3047
scalar barabasi_100nodes_network.client[56] 	avg_time[56].real 	0
scalar barabasi_100nodes_network.client[57] 	hdistance[57].real 	2.7096026490066
scalar barabasi_100nodes_network.client[57] 	downloads[57].real 	3020
scalar barabasi_100nodes_network.client[57] 	avg_time[57].real 	0
scalar barabasi_100nodes_network.client[58] 	hdistance[58].real 	2.1235882542756
scalar barabasi_100nodes_network.client[58] 	downloads[58].real 	3099
scalar barabasi_100nodes_network.client[58] 	avg_time[58].real 	0
scalar barabasi_100nodes_network.client[59] 	hdistance[59].real 	1.8226973684211
scalar barabasi_100nodes_network.client[59] 	downloads[59].real 	3040
scalar barabasi_100nodes_network.client[59] 	avg_time[59].real 	0
scalar barabasi_100nodes_network.client[60] 	hdistance[60].real 	2.7813095994914
scalar barabasi_100nodes_network.client[60] 	downloads[60].real 	3146
scalar barabasi_100nodes_network.client[60] 	avg_time[60].real 	0
scalar barabasi_100nodes_network.client[61] 	hdistance[61].real 	2.18144
scalar barabasi_100nodes_network.client[61] 	downloads[61].real 	3125
scalar barabasi_100nodes_network.client[61] 	avg_time[61].real 	0
scalar barabasi_100nodes_network.client[62] 	hdistance[62].real 	1.7041736227045
scalar barabasi_100nodes_network.client[62] 	downloads[62].real 	2995
scalar barabasi_100nodes_network.client[62] 	avg_time[62].real 	0
scalar barabasi_100nodes_network.client[63] 	hdistance[63].real 	2.7377926421405
scalar barabasi_100nodes_network.client[63] 	downloads[63].real 	2990
scalar barabasi_100nodes_network.client[63] 	avg_time[63].real 	0
scalar barabasi_100nodes_network.client[64] 	hdistance[64].real 	2.3468985887758
scalar barabasi_100nodes_network.client[64] 	downloads[64].real 	3047
scalar barabasi_100nodes_network.client[64] 	avg_time[64].real 	0
scalar barabasi_100nodes_network.client[65] 	hdistance[65].real 	1.985680985681
scalar barabasi_100nodes_network.client[65] 	downloads[65].real 	3003
scalar barabasi_100nodes_network.client[65] 	avg_time[65].real 	0
scalar barabasi_100nodes_network.client[66] 	hdistance[66].real 	2.199795431299
scalar barabasi_100nodes_network.client[66] 	downloads[66].real 	2933
scalar barabasi_100nodes_network.client[66] 	avg_time[66].real 	0
scalar barabasi_100nodes_network.client[67] 	hdistance[67].real 	1.9908015768725
scalar barabasi_100nodes_network.client[67] 	downloads[67].real 	3044
scalar barabasi_100nodes_network.client[67] 	avg_time[67].real 	0
scalar barabasi_100nodes_network.client[68] 	hdistance[68].real 	2.0098977235236
scalar barabasi_100nodes_network.client[68] 	downloads[68].real 	3031
scalar barabasi_100nodes_network.client[68] 	avg_time[68].real 	0
scalar barabasi_100nodes_network.client[69] 	hdistance[69].real 	2.3190204629319
scalar barabasi_100nodes_network.client[69] 	downloads[69].real 	2981
scalar barabasi_100nodes_network.client[69] 	avg_time[69].real 	0
scalar barabasi_100nodes_network.client[70] 	hdistance[70].real 	2.7422207664592
scalar barabasi_100nodes_network.client[70] 	downloads[70].real 	3053
scalar barabasi_100nodes_network.client[70] 	avg_time[70].real 	0
scalar barabasi_100nodes_network.client[71] 	hdistance[71].real 	2.7196944536699
scalar barabasi_100nodes_network.client[71] 	downloads[71].real 	3011
scalar barabasi_100nodes_network.client[71] 	avg_time[71].real 	0
scalar barabasi_100nodes_network.client[72] 	hdistance[72].real 	2.1377005347594
scalar barabasi_100nodes_network.client[72] 	downloads[72].real 	2992
scalar barabasi_100nodes_network.client[72] 	avg_time[72].real 	0
scalar barabasi_100nodes_network.client[73] 	hdistance[73].real 	1.791923340178
scalar barabasi_100nodes_network.client[73] 	downloads[73].real 	2922
scalar barabasi_100nodes_network.client[73] 	avg_time[73].real 	0
scalar barabasi_100nodes_network.client[74] 	hdistance[74].real 	1.8949065119278
scalar barabasi_100nodes_network.client[74] 	downloads[74].real 	3102
scalar barabasi_100nodes_network.client[74] 	avg_time[74].real 	0
scalar barabasi_100nodes_network.client[75] 	hdistance[75].real 	2.3594859655056
scalar barabasi_100nodes_network.client[75] 	downloads[75].real 	2957
scalar barabasi_100nodes_network.client[75] 	avg_time[75].real 	0
scalar barabasi_100nodes_network.client[76] 	hdistance[76].real 	2.2870967741935
scalar barabasi_100nodes_network.client[76] 	downloads[76].real 	3100
scalar barabasi_100nodes_network.client[76] 	avg_time[76].real 	0
scalar barabasi_100nodes_network.client[77] 	hdistance[77].real 	1.9963958060288
scalar barabasi_100nodes_network.client[77] 	downloads[77].real 	3052
scalar barabasi_100nodes_network.client[77] 	avg_time[77].real 	0
scalar barabasi_100nodes_network.client[78] 	hdistance[78].real 	1.7993961757799
scalar barabasi_100nodes_network.client[78] 	downloads[78].real 	2981
scalar barabasi_100nodes_network.client[78] 	avg_time[78].real 	0
scalar barabasi_100nodes_network.client[79] 	hdistance[79].real 	1.846519524618
scalar barabasi_100nodes_network.client[79] 	downloads[79].real 	2945
scalar barabasi_100nodes_network.client[79] 	avg_time[79].real 	0
scalar barabasi_100nodes_network.client[80] 	hdistance[80].real 	2.7123376623377
scalar barabasi_100nodes_network.client[80] 	downloads[80].real 	3080
scalar barabasi_100nodes_network.client[80] 	avg_time[80].real 	0
scalar barabasi_100nodes_network.client[81] 	hdistance[81].real 	2.188141025641
scalar barabasi_100nodes_network.client[81] 	downloads[81].real 	3120
scalar barabasi_100nodes_network.client[81] 	avg_time[81].real 	0
scalar barabasi_100nodes_network.client[82] 	hdistance[82].real 	2.9556412729026
scalar barabasi_100nodes_network.client[82] 	downloads[82].real 	3111
scalar barabasi_100nodes_network.client[82] 	avg_time[82].real 	0
scalar barabasi_100nodes_network.client[83] 	hdistance[83].real 	2.3906399235912
scalar barabasi_100nodes_network.client[83] 	downloads[83].real 	3141
scalar barabasi_100nodes_network.client[83] 	avg_time[83].real 	0
scalar barabasi_100nodes_network.client[84] 	hdistance[84].real 	2.0288397048961
scalar barabasi_100nodes_network.client[84] 	downloads[84].real 	2982
scalar barabasi_100nodes_network.client[84] 	avg_time[84].real 	0
scalar barabasi_100nodes_network.client[85] 	hdistance[85].real 	2.0120560443141
scalar barabasi_100nodes_network.client[85] 	downloads[85].real 	3069
scalar barabasi_100nodes_network.client[85] 	avg_time[85].real 	0
scalar barabasi_100nodes_network.client[86] 	hdistance[86].real 	2.2566025432018
scalar barabasi_100nodes_network.client[86] 	downloads[86].real 	3067
scalar barabasi_100nodes_network.client[86] 	avg_time[86].real 	0
scalar barabasi_100nodes_network.client[87] 	hdistance[87].real 	2.1513245033113
scalar barabasi_100nodes_network.client[87] 	downloads[87].real 	3020
scalar barabasi_100nodes_network.client[87] 	avg_time[87].real 	0
scalar barabasi_100nodes_network.client[88] 	hdistance[88].real 	2.0400134498991
scalar barabasi_100nodes_network.client[88] 	downloads[88].real 	2974
scalar barabasi_100nodes_network.client[88] 	avg_time[88].real 	0
scalar barabasi_100nodes_network.client[89] 	hdistance[89].real 	2.7741828986464
scalar barabasi_100nodes_network.client[89] 	downloads[89].real 	3029
scalar barabasi_100nodes_network.client[89] 	avg_time[89].real 	0
scalar barabasi_100nodes_network.client[90] 	hdistance[90].real 	2.1062786134729
scalar barabasi_100nodes_network.client[90] 	downloads[90].real 	3058
scalar barabasi_100nodes_network.client[90] 	avg_time[90].real 	0
scalar barabasi_100nodes_network.client[91] 	hdistance[91].real 	2.2926432291667
scalar barabasi_100nodes_network.client[91] 	downloads[91].real 	3072
scalar barabasi_100nodes_network.client[91] 	avg_time[91].real 	0
scalar barabasi_100nodes_network.client[92] 	hdistance[92].real 	2.4726973684211
scalar barabasi_100nodes_network.client[92] 	downloads[92].real 	3040
scalar barabasi_100nodes_network.client[92] 	avg_time[92].real 	0
scalar barabasi_100nodes_network.client[93] 	hdistance[93].real 	2.2190860215054
scalar barabasi_100nodes_network.client[93] 	downloads[93].real 	2976
scalar barabasi_100nodes_network.client[93] 	avg_time[93].real 	0
scalar barabasi_100nodes_network.client[94] 	hdistance[94].real 	2.7543628580836
scalar barabasi_100nodes_network.client[94] 	downloads[94].real 	3037
scalar barabasi_100nodes_network.client[94] 	avg_time[94].real 	0
scalar barabasi_100nodes_network.client[95] 	hdistance[95].real 	2.5095798319328
scalar barabasi_100nodes_network.client[95] 	downloads[95].real 	2975
scalar barabasi_100nodes_network.client[95] 	avg_time[95].real 	0
scalar barabasi_100nodes_network.client[96] 	hdistance[96].real 	2.4926124916051
scalar barabasi_100nodes_network.client[96] 	downloads[96].real 	2978
scalar barabasi_100nodes_network.client[96] 	avg_time[96].real 	0
scalar barabasi_100nodes_network.client[97] 	hdistance[97].real 	2.3210078534031
scalar barabasi_100nodes_network.client[97] 	downloads[97].real 	3056
scalar barabasi_100nodes_network.client[97] 	avg_time[97].real 	0
scalar barabasi_100nodes_network.client[98] 	hdistance[98].real 	2.5381552753816
scalar barabasi_100nodes_network.client[98] 	downloads[98].real 	3014
scalar barabasi_100nodes_network.client[98] 	avg_time[98].real 	0
scalar barabasi_100nodes_network.client[99] 	hdistance[99].real 	2.6182052106787
scalar barabasi_100nodes_network.client[99] 	downloads[99].real 	3109
scalar barabasi_100nodes_network.client[99] 	avg_time[99].real 	0
