version 2
run General-0-20150722-12:17:07-21293
attr C 1e4
attr D lce
attr F spr
attr R lru
attr a 1
attr brates 1
attr configname General
attr ctlg 1e6
attr datetime 20150722-12:17:07
attr experiment General
attr inifile omnetpp.ini
attr iterationvars "$net=barabasi_100nodes, $rep=1, $lambda=100, $a=1, $ctlg=1e6, $brates=1, $F=spr, $ttl=1000, $D=lce, $R=lru, $C=1e4, $window=60, $variance=0.05, $mytime=1800"
attr iterationvars2 "$net=barabasi_100nodes, $rep=1, $lambda=100, $a=1, $ctlg=1e6, $brates=1, $F=spr, $ttl=1000, $D=lce, $R=lru, $C=1e4, $window=60, $variance=0.05, $mytime=1800, $repetition=0"
attr lambda 100
attr measurement "$net=barabasi_100nodes, $rep=1, $lambda=100, $a=1, $ctlg=1e6, $brates=1, $F=spr, $ttl=1000, $D=lce, $R=lru, $C=1e4, $window=60, $variance=0.05, $mytime=1800"
attr mytime 1800
attr net barabasi_100nodes
attr network networks.${net=barabasi_100nodes}_network
attr processid 21293
attr rep 1
attr repetition 0
attr replication #0
attr resultdir results
attr runnumber 0
attr seedset 1
attr ttl 1000
attr variance 0.05
attr window 60

scalar . 	C 	1e4
scalar . 	a 	1
scalar . 	brates 	1
scalar . 	ctlg 	1e6
scalar . 	lambda 	100
scalar . 	mytime 	1800
scalar . 	rep 	1
scalar . 	ttl 	1000
scalar . 	variance 	0.05
scalar . 	window 	60
scalar barabasi_100nodes_network.content_distribution 	repo-0 	46
scalar barabasi_100nodes_network.content_distribution 	repo-1 	55
scalar barabasi_100nodes_network.content_distribution 	repo-2 	69
scalar barabasi_100nodes_network.content_distribution 	repo-3 	1
scalar barabasi_100nodes_network.content_distribution 	repo-4 	87
scalar barabasi_100nodes_network.content_distribution 	repo-5 	72
scalar barabasi_100nodes_network.content_distribution 	repo-6 	50
scalar barabasi_100nodes_network.content_distribution 	repo-7 	9
scalar barabasi_100nodes_network.content_distribution 	repo-8 	58
scalar barabasi_100nodes_network.content_distribution 	repo-9 	94
scalar barabasi_100nodes_network.content_distribution 	repo-10 	57
scalar barabasi_100nodes_network.content_distribution 	repo-11 	36
scalar barabasi_100nodes_network.content_distribution 	repo-12 	44
scalar barabasi_100nodes_network.content_distribution 	repo-13 	38
scalar barabasi_100nodes_network.content_distribution 	repo-14 	52
scalar barabasi_100nodes_network.content_distribution 	repo-15 	3
scalar barabasi_100nodes_network.content_distribution 	repo-16 	0
scalar barabasi_100nodes_network.content_distribution 	repo-17 	21
scalar barabasi_100nodes_network.content_distribution 	repo-18 	73
scalar barabasi_100nodes_network.content_distribution 	repo-19 	56
scalar barabasi_100nodes_network.content_distribution 	repo-20 	66
scalar barabasi_100nodes_network.content_distribution 	repo-21 	30
scalar barabasi_100nodes_network.content_distribution 	repo-22 	8
scalar barabasi_100nodes_network.content_distribution 	repo-23 	49
scalar barabasi_100nodes_network.content_distribution 	repo-24 	32
scalar barabasi_100nodes_network.content_distribution 	repo-25 	40
scalar barabasi_100nodes_network.content_distribution 	repo-26 	42
scalar barabasi_100nodes_network.content_distribution 	repo-27 	45
scalar barabasi_100nodes_network.content_distribution 	repo-28 	33
scalar barabasi_100nodes_network.content_distribution 	repo-29 	28
scalar barabasi_100nodes_network.content_distribution 	repo-30 	79
scalar barabasi_100nodes_network.content_distribution 	repo-31 	98
scalar barabasi_100nodes_network.content_distribution 	repo-32 	95
scalar barabasi_100nodes_network.content_distribution 	repo-33 	17
scalar barabasi_100nodes_network.content_distribution 	repo-34 	81
scalar barabasi_100nodes_network.content_distribution 	repo-35 	89
scalar barabasi_100nodes_network.content_distribution 	repo-36 	59
scalar barabasi_100nodes_network.content_distribution 	repo-37 	48
scalar barabasi_100nodes_network.content_distribution 	repo-38 	76
scalar barabasi_100nodes_network.content_distribution 	repo-39 	23
scalar barabasi_100nodes_network.content_distribution 	repo-40 	22
scalar barabasi_100nodes_network.content_distribution 	repo-41 	67
scalar barabasi_100nodes_network.content_distribution 	repo-42 	62
scalar barabasi_100nodes_network.content_distribution 	repo-43 	75
scalar barabasi_100nodes_network.content_distribution 	repo-44 	70
scalar barabasi_100nodes_network.content_distribution 	repo-45 	71
scalar barabasi_100nodes_network.content_distribution 	repo-46 	82
scalar barabasi_100nodes_network.content_distribution 	repo-47 	53
scalar barabasi_100nodes_network.content_distribution 	repo-48 	85
scalar barabasi_100nodes_network.content_distribution 	repo-49 	91
scalar barabasi_100nodes_network.content_distribution 	repo-50 	51
scalar barabasi_100nodes_network.content_distribution 	repo-51 	37
scalar barabasi_100nodes_network.content_distribution 	repo-52 	54
scalar barabasi_100nodes_network.content_distribution 	repo-53 	96
scalar barabasi_100nodes_network.content_distribution 	repo-54 	4
scalar barabasi_100nodes_network.content_distribution 	repo-55 	31
scalar barabasi_100nodes_network.content_distribution 	repo-56 	78
scalar barabasi_100nodes_network.content_distribution 	repo-57 	68
scalar barabasi_100nodes_network.content_distribution 	repo-58 	39
scalar barabasi_100nodes_network.content_distribution 	repo-59 	27
scalar barabasi_100nodes_network.content_distribution 	repo-60 	97
scalar barabasi_100nodes_network.content_distribution 	repo-61 	60
scalar barabasi_100nodes_network.content_distribution 	repo-62 	43
scalar barabasi_100nodes_network.content_distribution 	repo-63 	86
scalar barabasi_100nodes_network.content_distribution 	repo-64 	15
scalar barabasi_100nodes_network.content_distribution 	repo-65 	13
scalar barabasi_100nodes_network.content_distribution 	repo-66 	10
scalar barabasi_100nodes_network.content_distribution 	repo-67 	7
scalar barabasi_100nodes_network.content_distribution 	repo-68 	63
scalar barabasi_100nodes_network.content_distribution 	repo-69 	64
scalar barabasi_100nodes_network.content_distribution 	repo-70 	35
scalar barabasi_100nodes_network.content_distribution 	repo-71 	65
scalar barabasi_100nodes_network.content_distribution 	repo-72 	74
scalar barabasi_100nodes_network.content_distribution 	repo-73 	20
scalar barabasi_100nodes_network.content_distribution 	repo-74 	80
scalar barabasi_100nodes_network.content_distribution 	repo-75 	41
scalar barabasi_100nodes_network.content_distribution 	repo-76 	25
scalar barabasi_100nodes_network.content_distribution 	repo-77 	5
scalar barabasi_100nodes_network.content_distribution 	repo-78 	24
scalar barabasi_100nodes_network.content_distribution 	repo-79 	29
scalar barabasi_100nodes_network.content_distribution 	repo-80 	93
scalar barabasi_100nodes_network.content_distribution 	repo-81 	61
scalar barabasi_100nodes_network.content_distribution 	repo-82 	2
scalar barabasi_100nodes_network.content_distribution 	repo-83 	19
scalar barabasi_100nodes_network.content_distribution 	repo-84 	99
scalar barabasi_100nodes_network.content_distribution 	repo-85 	16
scalar barabasi_100nodes_network.content_distribution 	repo-86 	90
scalar barabasi_100nodes_network.content_distribution 	repo-87 	77
scalar barabasi_100nodes_network.content_distribution 	repo-88 	12
scalar barabasi_100nodes_network.content_distribution 	repo-89 	26
scalar barabasi_100nodes_network.content_distribution 	repo-90 	34
scalar barabasi_100nodes_network.content_distribution 	repo-91 	88
scalar barabasi_100nodes_network.content_distribution 	repo-92 	18
scalar barabasi_100nodes_network.content_distribution 	repo-93 	83
scalar barabasi_100nodes_network.content_distribution 	repo-94 	84
scalar barabasi_100nodes_network.content_distribution 	repo-95 	92
scalar barabasi_100nodes_network.content_distribution 	repo-96 	14
scalar barabasi_100nodes_network.content_distribution 	repo-97 	6
scalar barabasi_100nodes_network.content_distribution 	repo-98 	47
scalar barabasi_100nodes_network.content_distribution 	repo-99 	11
scalar barabasi_100nodes_network.content_distribution 	client-0 	3
scalar barabasi_100nodes_network.content_distribution 	client-1 	71
scalar barabasi_100nodes_network.content_distribution 	client-2 	78
scalar barabasi_100nodes_network.content_distribution 	client-3 	12
scalar barabasi_100nodes_network.content_distribution 	client-4 	7
scalar barabasi_100nodes_network.content_distribution 	client-5 	81
scalar barabasi_100nodes_network.content_distribution 	client-6 	86
scalar barabasi_100nodes_network.content_distribution 	client-7 	80
scalar barabasi_100nodes_network.content_distribution 	client-8 	79
scalar barabasi_100nodes_network.content_distribution 	client-9 	64
scalar barabasi_100nodes_network.content_distribution 	client-10 	10
scalar barabasi_100nodes_network.content_distribution 	client-11 	31
scalar barabasi_100nodes_network.content_distribution 	client-12 	45
scalar barabasi_100nodes_network.content_distribution 	client-13 	39
scalar barabasi_100nodes_network.content_distribution 	client-14 	84
scalar barabasi_100nodes_network.content_distribution 	client-15 	95
scalar barabasi_100nodes_network.content_distribution 	client-16 	48
scalar barabasi_100nodes_network.content_distribution 	client-17 	29
scalar barabasi_100nodes_network.content_distribution 	client-18 	43
scalar barabasi_100nodes_network.content_distribution 	client-19 	0
scalar barabasi_100nodes_network.content_distribution 	client-20 	8
scalar barabasi_100nodes_network.content_distribution 	client-21 	57
scalar barabasi_100nodes_network.content_distribution 	client-22 	38
scalar barabasi_100nodes_network.content_distribution 	client-23 	90
scalar barabasi_100nodes_network.content_distribution 	client-24 	54
scalar barabasi_100nodes_network.content_distribution 	client-25 	24
scalar barabasi_100nodes_network.content_distribution 	client-26 	52
scalar barabasi_100nodes_network.content_distribution 	client-27 	67
scalar barabasi_100nodes_network.content_distribution 	client-28 	44
scalar barabasi_100nodes_network.content_distribution 	client-29 	82
scalar barabasi_100nodes_network.content_distribution 	client-30 	14
scalar barabasi_100nodes_network.content_distribution 	client-31 	49
scalar barabasi_100nodes_network.content_distribution 	client-32 	6
scalar barabasi_100nodes_network.content_distribution 	client-33 	91
scalar barabasi_100nodes_network.content_distribution 	client-34 	60
scalar barabasi_100nodes_network.content_distribution 	client-35 	75
scalar barabasi_100nodes_network.content_distribution 	client-36 	59
scalar barabasi_100nodes_network.content_distribution 	client-37 	32
scalar barabasi_100nodes_network.content_distribution 	client-38 	15
scalar barabasi_100nodes_network.content_distribution 	client-39 	85
scalar barabasi_100nodes_network.content_distribution 	client-40 	62
scalar barabasi_100nodes_network.content_distribution 	client-41 	16
scalar barabasi_100nodes_network.content_distribution 	client-42 	21
scalar barabasi_100nodes_network.content_distribution 	client-43 	70
scalar barabasi_100nodes_network.content_distribution 	client-44 	5
scalar barabasi_100nodes_network.content_distribution 	client-45 	65
scalar barabasi_100nodes_network.content_distribution 	client-46 	30
scalar barabasi_100nodes_network.content_distribution 	client-47 	35
scalar barabasi_100nodes_network.content_distribution 	client-48 	46
scalar barabasi_100nodes_network.content_distribution 	client-49 	55
scalar barabasi_100nodes_network.content_distribution 	client-50 	2
scalar barabasi_100nodes_network.content_distribution 	client-51 	88
scalar barabasi_100nodes_network.content_distribution 	client-52 	41
scalar barabasi_100nodes_network.content_distribution 	client-53 	93
scalar barabasi_100nodes_network.content_distribution 	client-54 	69
scalar barabasi_100nodes_network.content_distribution 	client-55 	94
scalar barabasi_100nodes_network.content_distribution 	client-56 	56
scalar barabasi_100nodes_network.content_distribution 	client-57 	11
scalar barabasi_100nodes_network.content_distribution 	client-58 	22
scalar barabasi_100nodes_network.content_distribution 	client-59 	68
scalar barabasi_100nodes_network.content_distribution 	client-60 	97
scalar barabasi_100nodes_network.content_distribution 	client-61 	37
scalar barabasi_100nodes_network.content_distribution 	client-62 	9
scalar barabasi_100nodes_network.content_distribution 	client-63 	28
scalar barabasi_100nodes_network.content_distribution 	client-64 	83
scalar barabasi_100nodes_network.content_distribution 	client-65 	50
scalar barabasi_100nodes_network.content_distribution 	client-66 	61
scalar barabasi_100nodes_network.content_distribution 	client-67 	26
scalar barabasi_100nodes_network.content_distribution 	client-68 	53
scalar barabasi_100nodes_network.content_distribution 	client-69 	1
scalar barabasi_100nodes_network.content_distribution 	client-70 	73
scalar barabasi_100nodes_network.content_distribution 	client-71 	92
scalar barabasi_100nodes_network.content_distribution 	client-72 	72
scalar barabasi_100nodes_network.content_distribution 	client-73 	40
scalar barabasi_100nodes_network.content_distribution 	client-74 	87
scalar barabasi_100nodes_network.content_distribution 	client-75 	66
scalar barabasi_100nodes_network.content_distribution 	client-76 	42
scalar barabasi_100nodes_network.content_distribution 	client-77 	89
scalar barabasi_100nodes_network.content_distribution 	client-78 	96
scalar barabasi_100nodes_network.content_distribution 	client-79 	47
scalar barabasi_100nodes_network.content_distribution 	client-80 	18
scalar barabasi_100nodes_network.content_distribution 	client-81 	33
scalar barabasi_100nodes_network.content_distribution 	client-82 	17
scalar barabasi_100nodes_network.content_distribution 	client-83 	51
scalar barabasi_100nodes_network.content_distribution 	client-84 	34
scalar barabasi_100nodes_network.content_distribution 	client-85 	4
scalar barabasi_100nodes_network.content_distribution 	client-86 	76
scalar barabasi_100nodes_network.content_distribution 	client-87 	13
scalar barabasi_100nodes_network.content_distribution 	client-88 	36
scalar barabasi_100nodes_network.content_distribution 	client-89 	58
scalar barabasi_100nodes_network.content_distribution 	client-90 	74
scalar barabasi_100nodes_network.content_distribution 	client-91 	23
scalar barabasi_100nodes_network.content_distribution 	client-92 	25
scalar barabasi_100nodes_network.content_distribution 	client-93 	77
scalar barabasi_100nodes_network.content_distribution 	client-94 	98
scalar barabasi_100nodes_network.content_distribution 	client-95 	27
scalar barabasi_100nodes_network.content_distribution 	client-96 	99
scalar barabasi_100nodes_network.content_distribution 	client-97 	19
scalar barabasi_100nodes_network.content_distribution 	client-98 	20
scalar barabasi_100nodes_network.content_distribution 	client-99 	63
scalar barabasi_100nodes_network.content_distribution 	repo-0_card 	249719
scalar barabasi_100nodes_network.content_distribution 	repo-0_price 	0
scalar barabasi_100nodes_network.content_distribution 	repo-1_card 	249423
scalar barabasi_100nodes_network.content_distribution 	repo-1_price 	0
scalar barabasi_100nodes_network.content_distribution 	repo-2_card 	249931
scalar barabasi_100nodes_network.content_distribution 	repo-2_price 	0
scalar barabasi_100nodes_network.content_distribution 	repo-3_card 	250927
scalar barabasi_100nodes_network.content_distribution 	repo-3_price 	0
scalar barabasi_100nodes_network.content_distribution 	repo-4_card 	0
scalar barabasi_100nodes_network.content_distribution 	repo-4_price 	0
scalar barabasi_100nodes_network.content_distribution 	repo-5_card 	0
scalar barabasi_100nodes_network.content_distribution 	repo-5_price 	0
scalar barabasi_100nodes_network.content_distribution 	repo-6_card 	0
scalar barabasi_100nodes_network.content_distribution 	repo-6_price 	0
scalar barabasi_100nodes_network.content_distribution 	repo-7_card 	0
scalar barabasi_100nodes_network.content_distribution 	repo-7_price 	0
scalar barabasi_100nodes_network.content_distribution 	repo-8_card 	0
scalar barabasi_100nodes_network.content_distribution 	repo-8_price 	0
scalar barabasi_100nodes_network.content_distribution 	repo-9_card 	0
scalar barabasi_100nodes_network.content_distribution 	repo-9_price 	0
scalar barabasi_100nodes_network.content_distribution 	repo-10_card 	0
scalar barabasi_100nodes_network.content_distribution 	repo-10_price 	0
scalar barabasi_100nodes_network.content_distribution 	repo-11_card 	0
scalar barabasi_100nodes_network.content_distribution 	repo-11_price 	0
scalar barabasi_100nodes_network.content_distribution 	repo-12_card 	0
scalar barabasi_100nodes_network.content_distribution 	repo-12_price 	0
scalar barabasi_100nodes_network.content_distribution 	repo-13_card 	0
scalar barabasi_100nodes_network.content_distribution 	repo-13_price 	0
scalar barabasi_100nodes_network.content_distribution 	repo-14_card 	0
scalar barabasi_100nodes_network.content_distribution 	repo-14_price 	0
scalar barabasi_100nodes_network.content_distribution 	repo-15_card 	0
scalar barabasi_100nodes_network.content_distribution 	repo-15_price 	0
scalar barabasi_100nodes_network.content_distribution 	repo-16_card 	0
scalar barabasi_100nodes_network.content_distribution 	repo-16_price 	0
scalar barabasi_100nodes_network.content_distribution 	repo-17_card 	0
scalar barabasi_100nodes_network.content_distribution 	repo-17_price 	0
scalar barabasi_100nodes_network.content_distribution 	repo-18_card 	0
scalar barabasi_100nodes_network.content_distribution 	repo-18_price 	0
scalar barabasi_100nodes_network.content_distribution 	repo-19_card 	0
scalar barabasi_100nodes_network.content_distribution 	repo-19_price 	0
scalar barabasi_100nodes_network.content_distribution 	repo-20_card 	0
scalar barabasi_100nodes_network.content_distribution 	repo-20_price 	0
scalar barabasi_100nodes_network.content_distribution 	repo-21_card 	0
scalar barabasi_100nodes_network.content_distribution 	repo-21_price 	0
scalar barabasi_100nodes_network.content_distribution 	repo-22_card 	0
scalar barabasi_100nodes_network.content_distribution 	repo-22_price 	0
scalar barabasi_100nodes_network.content_distribution 	repo-23_card 	0
scalar barabasi_100nodes_network.content_distribution 	repo-23_price 	0
scalar barabasi_100nodes_network.content_distribution 	repo-24_card 	0
scalar barabasi_100nodes_network.content_distribution 	repo-24_price 	0
scalar barabasi_100nodes_network.content_distribution 	repo-25_card 	0
scalar barabasi_100nodes_network.content_distribution 	repo-25_price 	0
scalar barabasi_100nodes_network.content_distribution 	repo-26_card 	0
scalar barabasi_100nodes_network.content_distribution 	repo-26_price 	0
scalar barabasi_100nodes_network.content_distribution 	repo-27_card 	0
scalar barabasi_100nodes_network.content_distribution 	repo-27_price 	0
scalar barabasi_100nodes_network.content_distribution 	repo-28_card 	0
scalar barabasi_100nodes_network.content_distribution 	repo-28_price 	0
scalar barabasi_100nodes_network.content_distribution 	repo-29_card 	0
scalar barabasi_100nodes_network.content_distribution 	repo-29_price 	0
scalar barabasi_100nodes_network.content_distribution 	repo-30_card 	0
scalar barabasi_100nodes_network.content_distribution 	repo-30_price 	0
scalar barabasi_100nodes_network.content_distribution 	repo-31_card 	0
scalar barabasi_100nodes_network.content_distribution 	repo-31_price 	0
scalar barabasi_100nodes_network.content_distribution 	repo-32_card 	0
scalar barabasi_100nodes_network.content_distribution 	repo-32_price 	0
scalar barabasi_100nodes_network.content_distribution 	repo-33_card 	0
scalar barabasi_100nodes_network.content_distribution 	repo-33_price 	0
scalar barabasi_100nodes_network.content_distribution 	repo-34_card 	0
scalar barabasi_100nodes_network.content_distribution 	repo-34_price 	0
scalar barabasi_100nodes_network.content_distribution 	repo-35_card 	0
scalar barabasi_100nodes_network.content_distribution 	repo-35_price 	0
scalar barabasi_100nodes_network.content_distribution 	repo-36_card 	0
scalar barabasi_100nodes_network.content_distribution 	repo-36_price 	0
scalar barabasi_100nodes_network.content_distribution 	repo-37_card 	0
scalar barabasi_100nodes_network.content_distribution 	repo-37_price 	0
scalar barabasi_100nodes_network.content_distribution 	repo-38_card 	0
scalar barabasi_100nodes_network.content_distribution 	repo-38_price 	0
scalar barabasi_100nodes_network.content_distribution 	repo-39_card 	0
scalar barabasi_100nodes_network.content_distribution 	repo-39_price 	0
scalar barabasi_100nodes_network.content_distribution 	repo-40_card 	0
scalar barabasi_100nodes_network.content_distribution 	repo-40_price 	0
scalar barabasi_100nodes_network.content_distribution 	repo-41_card 	0
scalar barabasi_100nodes_network.content_distribution 	repo-41_price 	0
scalar barabasi_100nodes_network.content_distribution 	repo-42_card 	0
scalar barabasi_100nodes_network.content_distribution 	repo-42_price 	0
scalar barabasi_100nodes_network.content_distribution 	repo-43_card 	0
scalar barabasi_100nodes_network.content_distribution 	repo-43_price 	0
scalar barabasi_100nodes_network.content_distribution 	repo-44_card 	0
scalar barabasi_100nodes_network.content_distribution 	repo-44_price 	0
scalar barabasi_100nodes_network.content_distribution 	repo-45_card 	0
scalar barabasi_100nodes_network.content_distribution 	repo-45_price 	0
scalar barabasi_100nodes_network.content_distribution 	repo-46_card 	0
scalar barabasi_100nodes_network.content_distribution 	repo-46_price 	0
scalar barabasi_100nodes_network.content_distribution 	repo-47_card 	0
scalar barabasi_100nodes_network.content_distribution 	repo-47_price 	0
scalar barabasi_100nodes_network.content_distribution 	repo-48_card 	0
scalar barabasi_100nodes_network.content_distribution 	repo-48_price 	0
scalar barabasi_100nodes_network.content_distribution 	repo-49_card 	0
scalar barabasi_100nodes_network.content_distribution 	repo-49_price 	0
scalar barabasi_100nodes_network.content_distribution 	repo-50_card 	0
scalar barabasi_100nodes_network.content_distribution 	repo-50_price 	0
scalar barabasi_100nodes_network.content_distribution 	repo-51_card 	0
scalar barabasi_100nodes_network.content_distribution 	repo-51_price 	0
scalar barabasi_100nodes_network.content_distribution 	repo-52_card 	0
scalar barabasi_100nodes_network.content_distribution 	repo-52_price 	0
scalar barabasi_100nodes_network.content_distribution 	repo-53_card 	0
scalar barabasi_100nodes_network.content_distribution 	repo-53_price 	0
scalar barabasi_100nodes_network.content_distribution 	repo-54_card 	0
scalar barabasi_100nodes_network.content_distribution 	repo-54_price 	0
scalar barabasi_100nodes_network.content_distribution 	repo-55_card 	0
scalar barabasi_100nodes_network.content_distribution 	repo-55_price 	0
scalar barabasi_100nodes_network.content_distribution 	repo-56_card 	0
scalar barabasi_100nodes_network.content_distribution 	repo-56_price 	0
scalar barabasi_100nodes_network.content_distribution 	repo-57_card 	0
scalar barabasi_100nodes_network.content_distribution 	repo-57_price 	0
scalar barabasi_100nodes_network.content_distribution 	repo-58_card 	0
scalar barabasi_100nodes_network.content_distribution 	repo-58_price 	0
scalar barabasi_100nodes_network.content_distribution 	repo-59_card 	0
scalar barabasi_100nodes_network.content_distribution 	repo-59_price 	0
scalar barabasi_100nodes_network.content_distribution 	repo-60_card 	0
scalar barabasi_100nodes_network.content_distribution 	repo-60_price 	0
scalar barabasi_100nodes_network.content_distribution 	repo-61_card 	0
scalar barabasi_100nodes_network.content_distribution 	repo-61_price 	0
scalar barabasi_100nodes_network.content_distribution 	repo-62_card 	0
scalar barabasi_100nodes_network.content_distribution 	repo-62_price 	0
scalar barabasi_100nodes_network.content_distribution 	repo-63_card 	0
scalar barabasi_100nodes_network.content_distribution 	repo-63_price 	0
scalar barabasi_100nodes_network.content_distribution 	repo-64_card 	0
scalar barabasi_100nodes_network.content_distribution 	repo-64_price 	0
scalar barabasi_100nodes_network.content_distribution 	repo-65_card 	0
scalar barabasi_100nodes_network.content_distribution 	repo-65_price 	0
scalar barabasi_100nodes_network.content_distribution 	repo-66_card 	0
scalar barabasi_100nodes_network.content_distribution 	repo-66_price 	0
scalar barabasi_100nodes_network.content_distribution 	repo-67_card 	0
scalar barabasi_100nodes_network.content_distribution 	repo-67_price 	0
scalar barabasi_100nodes_network.content_distribution 	repo-68_card 	0
scalar barabasi_100nodes_network.content_distribution 	repo-68_price 	0
scalar barabasi_100nodes_network.content_distribution 	repo-69_card 	0
scalar barabasi_100nodes_network.content_distribution 	repo-69_price 	0
scalar barabasi_100nodes_network.content_distribution 	repo-70_card 	0
scalar barabasi_100nodes_network.content_distribution 	repo-70_price 	0
scalar barabasi_100nodes_network.content_distribution 	repo-71_card 	0
scalar barabasi_100nodes_network.content_distribution 	repo-71_price 	0
scalar barabasi_100nodes_network.content_distribution 	repo-72_card 	0
scalar barabasi_100nodes_network.content_distribution 	repo-72_price 	0
scalar barabasi_100nodes_network.content_distribution 	repo-73_card 	0
scalar barabasi_100nodes_network.content_distribution 	repo-73_price 	0
scalar barabasi_100nodes_network.content_distribution 	repo-74_card 	0
scalar barabasi_100nodes_network.content_distribution 	repo-74_price 	0
scalar barabasi_100nodes_network.content_distribution 	repo-75_card 	0
scalar barabasi_100nodes_network.content_distribution 	repo-75_price 	0
scalar barabasi_100nodes_network.content_distribution 	repo-76_card 	0
scalar barabasi_100nodes_network.content_distribution 	repo-76_price 	0
scalar barabasi_100nodes_network.content_distribution 	repo-77_card 	0
scalar barabasi_100nodes_network.content_distribution 	repo-77_price 	0
scalar barabasi_100nodes_network.content_distribution 	repo-78_card 	0
scalar barabasi_100nodes_network.content_distribution 	repo-78_price 	0
scalar barabasi_100nodes_network.content_distribution 	repo-79_card 	0
scalar barabasi_100nodes_network.content_distribution 	repo-79_price 	0
scalar barabasi_100nodes_network.content_distribution 	repo-80_card 	0
scalar barabasi_100nodes_network.content_distribution 	repo-80_price 	0
scalar barabasi_100nodes_network.content_distribution 	repo-81_card 	0
scalar barabasi_100nodes_network.content_distribution 	repo-81_price 	0
scalar barabasi_100nodes_network.content_distribution 	repo-82_card 	0
scalar barabasi_100nodes_network.content_distribution 	repo-82_price 	0
scalar barabasi_100nodes_network.content_distribution 	repo-83_card 	0
scalar barabasi_100nodes_network.content_distribution 	repo-83_price 	0
scalar barabasi_100nodes_network.content_distribution 	repo-84_card 	0
scalar barabasi_100nodes_network.content_distribution 	repo-84_price 	0
scalar barabasi_100nodes_network.content_distribution 	repo-85_card 	0
scalar barabasi_100nodes_network.content_distribution 	repo-85_price 	0
scalar barabasi_100nodes_network.content_distribution 	repo-86_card 	0
scalar barabasi_100nodes_network.content_distribution 	repo-86_price 	0
scalar barabasi_100nodes_network.content_distribution 	repo-87_card 	0
scalar barabasi_100nodes_network.content_distribution 	repo-87_price 	0
scalar barabasi_100nodes_network.content_distribution 	repo-88_card 	0
scalar barabasi_100nodes_network.content_distribution 	repo-88_price 	0
scalar barabasi_100nodes_network.content_distribution 	repo-89_card 	0
scalar barabasi_100nodes_network.content_distribution 	repo-89_price 	0
scalar barabasi_100nodes_network.content_distribution 	repo-90_card 	0
scalar barabasi_100nodes_network.content_distribution 	repo-90_price 	0
scalar barabasi_100nodes_network.content_distribution 	repo-91_card 	0
scalar barabasi_100nodes_network.content_distribution 	repo-91_price 	0
scalar barabasi_100nodes_network.content_distribution 	repo-92_card 	0
scalar barabasi_100nodes_network.content_distribution 	repo-92_price 	0
scalar barabasi_100nodes_network.content_distribution 	repo-93_card 	0
scalar barabasi_100nodes_network.content_distribution 	repo-93_price 	0
scalar barabasi_100nodes_network.content_distribution 	repo-94_card 	0
scalar barabasi_100nodes_network.content_distribution 	repo-94_price 	0
scalar barabasi_100nodes_network.content_distribution 	repo-95_card 	0
scalar barabasi_100nodes_network.content_distribution 	repo-95_price 	0
scalar barabasi_100nodes_network.content_distribution 	repo-96_card 	0
scalar barabasi_100nodes_network.content_distribution 	repo-96_price 	0
scalar barabasi_100nodes_network.content_distribution 	repo-97_card 	0
scalar barabasi_100nodes_network.content_distribution 	repo-97_price 	0
scalar barabasi_100nodes_network.content_distribution 	repo-98_card 	0
scalar barabasi_100nodes_network.content_distribution 	repo-98_price 	0
scalar barabasi_100nodes_network.content_distribution 	repo-99_card 	0
scalar barabasi_100nodes_network.content_distribution 	repo-99_price 	0
scalar barabasi_100nodes_network.statistics 	p_hit 	0.21039100580857
scalar barabasi_100nodes_network.statistics 	interests 	8413.43
scalar barabasi_100nodes_network.statistics 	data 	5388.68
scalar barabasi_100nodes_network.statistics 	hdistance 	2.1966068373457
scalar barabasi_100nodes_network.statistics 	avg_time 	0
scalar barabasi_100nodes_network.statistics 	downloads 	302472
scalar barabasi_100nodes_network.statistics 	total_cost 	0
scalar barabasi_100nodes_network.statistics 	total_replicas 	1000000
scalar barabasi_100nodes_network.statistics 	"representations_downloaded 1:" 	0
scalar barabasi_100nodes_network.statistics 	"slots_per_representation 100:" 	0
scalar barabasi_100nodes_network.statistics 	inner_hit 	0.58521119310217
scalar barabasi_100nodes_network.statistics 	execution_time 	23
scalar barabasi_100nodes_network.node[0].core_layer 	interests[0] 	61459
scalar barabasi_100nodes_network.node[0].core_layer 	data[0] 	49455
scalar barabasi_100nodes_network.node[0].core_layer 	slots_sent[face$o[1]->client[0]] 	294500
scalar barabasi_100nodes_network.node[0].core_layer 	slots_sent[face$o[2]->node[1]] 	134500
scalar barabasi_100nodes_network.node[0].core_layer 	slots_sent[face$o[3]->node[2]] 	2031500
scalar barabasi_100nodes_network.node[0].core_layer 	slots_sent[face$o[4]->node[5]] 	625200
scalar barabasi_100nodes_network.node[0].core_layer 	slots_sent[face$o[5]->node[10]] 	256800
scalar barabasi_100nodes_network.node[0].core_layer 	slots_sent[face$o[6]->node[11]] 	146500
scalar barabasi_100nodes_network.node[0].core_layer 	slots_sent[face$o[7]->node[15]] 	366700
scalar barabasi_100nodes_network.node[0].core_layer 	slots_sent[face$o[8]->node[21]] 	485800
scalar barabasi_100nodes_network.node[0].core_layer 	slots_sent[face$o[9]->node[22]] 	184000
scalar barabasi_100nodes_network.node[0].core_layer 	slots_sent[face$o[10]->node[28]] 	192800
scalar barabasi_100nodes_network.node[0].core_layer 	slots_sent[face$o[11]->node[37]] 	184500
scalar barabasi_100nodes_network.node[0].core_layer 	slots_sent[face$o[12]->node[44]] 	181200
scalar barabasi_100nodes_network.node[0].core_layer 	slots_sent[face$o[13]->node[58]] 	346900
scalar barabasi_100nodes_network.node[0].core_layer 	slots_sent[face$o[14]->node[73]] 	345600
scalar barabasi_100nodes_network.node[0].core_layer 	slots_sent[face$o[15]->node[74]] 	182400
scalar barabasi_100nodes_network.node[0].core_layer 	slots_sent[face$o[16]->node[93]] 	186900
scalar barabasi_100nodes_network.node[0].content_store 	p_hit[0] 	0.19530093232887
scalar barabasi_100nodes_network.node[0].content_store 	hits[0] 	12003
scalar barabasi_100nodes_network.node[0].content_store 	misses[0] 	49456
scalar barabasi_100nodes_network.node[0].content_store 	decision_yes[0] 	49455
scalar barabasi_100nodes_network.node[0].content_store 	decision_no[0] 	0
scalar barabasi_100nodes_network.node[0].content_store 	decision_ratio[0] 	1
scalar barabasi_100nodes_network.node[1].core_layer 	interests[1] 	27527
scalar barabasi_100nodes_network.node[1].core_layer 	repo_load[1] 	25465
scalar barabasi_100nodes_network.node[1].core_layer 	data[1] 	1345
scalar barabasi_100nodes_network.node[1].core_layer 	slots_sent[face$o[1]->client[1]] 	296400
scalar barabasi_100nodes_network.node[1].core_layer 	slots_sent[face$o[2]->node[0]] 	2456300
scalar barabasi_100nodes_network.node[1].content_store 	p_hit[1] 	0.026047153703636
scalar barabasi_100nodes_network.node[1].content_store 	hits[1] 	717
scalar barabasi_100nodes_network.node[1].content_store 	misses[1] 	26810
scalar barabasi_100nodes_network.node[1].content_store 	decision_yes[1] 	1345
scalar barabasi_100nodes_network.node[1].content_store 	decision_no[1] 	25465
scalar barabasi_100nodes_network.node[1].content_store 	decision_ratio[1] 	0.050167847817978
scalar barabasi_100nodes_network.node[2].core_layer 	interests[2] 	124338
scalar barabasi_100nodes_network.node[2].core_layer 	data[2] 	102572
scalar barabasi_100nodes_network.node[2].core_layer 	slots_sent[face$o[1]->client[2]] 	302000
scalar barabasi_100nodes_network.node[2].core_layer 	slots_sent[face$o[2]->node[0]] 	2489300
scalar barabasi_100nodes_network.node[2].core_layer 	slots_sent[face$o[3]->node[3]] 	340200
scalar barabasi_100nodes_network.node[2].core_layer 	slots_sent[face$o[4]->node[4]] 	899200
scalar barabasi_100nodes_network.node[2].core_layer 	slots_sent[face$o[5]->node[6]] 	138400
scalar barabasi_100nodes_network.node[2].core_layer 	slots_sent[face$o[6]->node[7]] 	994200
scalar barabasi_100nodes_network.node[2].core_layer 	slots_sent[face$o[7]->node[8]] 	1105800
scalar barabasi_100nodes_network.node[2].core_layer 	slots_sent[face$o[8]->node[13]] 	539000
scalar barabasi_100nodes_network.node[2].core_layer 	slots_sent[face$o[9]->node[16]] 	991100
scalar barabasi_100nodes_network.node[2].core_layer 	slots_sent[face$o[10]->node[18]] 	638100
scalar barabasi_100nodes_network.node[2].core_layer 	slots_sent[face$o[11]->node[25]] 	334600
scalar barabasi_100nodes_network.node[2].core_layer 	slots_sent[face$o[12]->node[26]] 	622500
scalar barabasi_100nodes_network.node[2].core_layer 	slots_sent[face$o[13]->node[29]] 	185600
scalar barabasi_100nodes_network.node[2].core_layer 	slots_sent[face$o[14]->node[32]] 	486100
scalar barabasi_100nodes_network.node[2].core_layer 	slots_sent[face$o[15]->node[33]] 	188700
scalar barabasi_100nodes_network.node[2].core_layer 	slots_sent[face$o[16]->node[34]] 	193100
scalar barabasi_100nodes_network.node[2].core_layer 	slots_sent[face$o[17]->node[36]] 	346200
scalar barabasi_100nodes_network.node[2].core_layer 	slots_sent[face$o[18]->node[41]] 	582400
scalar barabasi_100nodes_network.node[2].core_layer 	slots_sent[face$o[19]->node[45]] 	180400
scalar barabasi_100nodes_network.node[2].core_layer 	slots_sent[face$o[20]->node[59]] 	188500
scalar barabasi_100nodes_network.node[2].core_layer 	slots_sent[face$o[21]->node[62]] 	501700
scalar barabasi_100nodes_network.node[2].core_layer 	slots_sent[face$o[22]->node[79]] 	186700
scalar barabasi_100nodes_network.node[2].content_store 	p_hit[2] 	0.17505509176599
scalar barabasi_100nodes_network.node[2].content_store 	hits[2] 	21766
scalar barabasi_100nodes_network.node[2].content_store 	misses[2] 	102572
scalar barabasi_100nodes_network.node[2].content_store 	decision_yes[2] 	102572
scalar barabasi_100nodes_network.node[2].content_store 	decision_no[2] 	0
scalar barabasi_100nodes_network.node[2].content_store 	decision_ratio[2] 	1
scalar barabasi_100nodes_network.node[3].core_layer 	interests[3] 	4900
scalar barabasi_100nodes_network.node[3].core_layer 	data[3] 	3402
scalar barabasi_100nodes_network.node[3].core_layer 	slots_sent[face$o[1]->client[3]] 	301000
scalar barabasi_100nodes_network.node[3].core_layer 	slots_sent[face$o[2]->node[2]] 	0
scalar barabasi_100nodes_network.node[3].core_layer 	slots_sent[face$o[3]->node[52]] 	189000
scalar barabasi_100nodes_network.node[3].content_store 	p_hit[3] 	0.30571428571429
scalar barabasi_100nodes_network.node[3].content_store 	hits[3] 	1498
scalar barabasi_100nodes_network.node[3].content_store 	misses[3] 	3402
scalar barabasi_100nodes_network.node[3].content_store 	decision_yes[3] 	3402
scalar barabasi_100nodes_network.node[3].content_store 	decision_no[3] 	0
scalar barabasi_100nodes_network.node[3].content_store 	decision_ratio[3] 	1
scalar barabasi_100nodes_network.node[4].core_layer 	interests[4] 	11809
scalar barabasi_100nodes_network.node[4].core_layer 	data[4] 	8992
scalar barabasi_100nodes_network.node[4].core_layer 	slots_sent[face$o[1]->client[4]] 	299600
scalar barabasi_100nodes_network.node[4].core_layer 	slots_sent[face$o[2]->node[2]] 	0
scalar barabasi_100nodes_network.node[4].core_layer 	slots_sent[face$o[3]->node[27]] 	344500
scalar barabasi_100nodes_network.node[4].core_layer 	slots_sent[face$o[4]->node[30]] 	354100
scalar barabasi_100nodes_network.node[4].core_layer 	slots_sent[face$o[5]->node[85]] 	182700
scalar barabasi_100nodes_network.node[4].content_store 	p_hit[4] 	0.23854687103057
scalar barabasi_100nodes_network.node[4].content_store 	hits[4] 	2817
scalar barabasi_100nodes_network.node[4].content_store 	misses[4] 	8992
scalar barabasi_100nodes_network.node[4].content_store 	decision_yes[4] 	8992
scalar barabasi_100nodes_network.node[4].content_store 	decision_no[4] 	0
scalar barabasi_100nodes_network.node[4].content_store 	decision_ratio[4] 	1
scalar barabasi_100nodes_network.node[5].core_layer 	interests[5] 	8276
scalar barabasi_100nodes_network.node[5].core_layer 	data[5] 	6252
scalar barabasi_100nodes_network.node[5].core_layer 	slots_sent[face$o[1]->client[5]] 	299100
scalar barabasi_100nodes_network.node[5].core_layer 	slots_sent[face$o[2]->node[0]] 	0
scalar barabasi_100nodes_network.node[5].core_layer 	slots_sent[face$o[3]->node[9]] 	182100
scalar barabasi_100nodes_network.node[5].core_layer 	slots_sent[face$o[4]->node[35]] 	346400
scalar barabasi_100nodes_network.node[5].content_store 	p_hit[5] 	0.24456259062349
scalar barabasi_100nodes_network.node[5].content_store 	hits[5] 	2024
scalar barabasi_100nodes_network.node[5].content_store 	misses[5] 	6252
scalar barabasi_100nodes_network.node[5].content_store 	decision_yes[5] 	6252
scalar barabasi_100nodes_network.node[5].content_store 	decision_no[5] 	0
scalar barabasi_100nodes_network.node[5].content_store 	decision_ratio[5] 	1
scalar barabasi_100nodes_network.node[6].core_layer 	interests[6] 	3121
scalar barabasi_100nodes_network.node[6].core_layer 	repo_load[6] 	712
scalar barabasi_100nodes_network.node[6].core_layer 	data[6] 	1384
scalar barabasi_100nodes_network.node[6].core_layer 	slots_sent[face$o[1]->client[6]] 	312100
scalar barabasi_100nodes_network.node[6].core_layer 	slots_sent[face$o[2]->node[2]] 	0
scalar barabasi_100nodes_network.node[6].content_store 	p_hit[6] 	0.32842037808395
scalar barabasi_100nodes_network.node[6].content_store 	hits[6] 	1025
scalar barabasi_100nodes_network.node[6].content_store 	misses[6] 	2096
scalar barabasi_100nodes_network.node[6].content_store 	decision_yes[6] 	1384
scalar barabasi_100nodes_network.node[6].content_store 	decision_no[6] 	712
scalar barabasi_100nodes_network.node[6].content_store 	decision_ratio[6] 	0.66030534351145
scalar barabasi_100nodes_network.node[7].core_layer 	interests[7] 	47173
scalar barabasi_100nodes_network.node[7].core_layer 	repo_load[7] 	6145
scalar barabasi_100nodes_network.node[7].core_layer 	data[7] 	34036
scalar barabasi_100nodes_network.node[7].core_layer 	slots_sent[face$o[1]->client[7]] 	298200
scalar barabasi_100nodes_network.node[7].core_layer 	slots_sent[face$o[2]->node[2]] 	2653300
scalar barabasi_100nodes_network.node[7].core_layer 	slots_sent[face$o[3]->node[23]] 	798100
scalar barabasi_100nodes_network.node[7].core_layer 	slots_sent[face$o[4]->node[31]] 	594500
scalar barabasi_100nodes_network.node[7].core_layer 	slots_sent[face$o[5]->node[49]] 	188200
scalar barabasi_100nodes_network.node[7].core_layer 	slots_sent[face$o[6]->node[90]] 	185000
scalar barabasi_100nodes_network.node[7].content_store 	p_hit[7] 	0.14822038030229
scalar barabasi_100nodes_network.node[7].content_store 	hits[7] 	6992
scalar barabasi_100nodes_network.node[7].content_store 	misses[7] 	40181
scalar barabasi_100nodes_network.node[7].content_store 	decision_yes[7] 	34036
scalar barabasi_100nodes_network.node[7].content_store 	decision_no[7] 	6145
scalar barabasi_100nodes_network.node[7].content_store 	decision_ratio[7] 	0.84706702172669
scalar barabasi_100nodes_network.node[8].core_layer 	interests[8] 	15095
scalar barabasi_100nodes_network.node[8].core_layer 	data[8] 	11058
scalar barabasi_100nodes_network.node[8].core_layer 	slots_sent[face$o[1]->client[8]] 	299500
scalar barabasi_100nodes_network.node[8].core_layer 	slots_sent[face$o[2]->node[2]] 	0
scalar barabasi_100nodes_network.node[8].core_layer 	slots_sent[face$o[3]->node[12]] 	192200
scalar barabasi_100nodes_network.node[8].core_layer 	slots_sent[face$o[4]->node[14]] 	141700
scalar barabasi_100nodes_network.node[8].core_layer 	slots_sent[face$o[5]->node[17]] 	145000
scalar barabasi_100nodes_network.node[8].core_layer 	slots_sent[face$o[6]->node[39]] 	349700
scalar barabasi_100nodes_network.node[8].core_layer 	slots_sent[face$o[7]->node[61]] 	192300
scalar barabasi_100nodes_network.node[8].core_layer 	slots_sent[face$o[8]->node[66]] 	189100
scalar barabasi_100nodes_network.node[8].content_store 	p_hit[8] 	0.26743954951971
scalar barabasi_100nodes_network.node[8].content_store 	hits[8] 	4037
scalar barabasi_100nodes_network.node[8].content_store 	misses[8] 	11058
scalar barabasi_100nodes_network.node[8].content_store 	decision_yes[8] 	11058
scalar barabasi_100nodes_network.node[8].content_store 	decision_no[8] 	0
scalar barabasi_100nodes_network.node[8].content_store 	decision_ratio[8] 	1
scalar barabasi_100nodes_network.node[9].core_layer 	interests[9] 	3018
scalar barabasi_100nodes_network.node[9].core_layer 	data[9] 	1821
scalar barabasi_100nodes_network.node[9].core_layer 	slots_sent[face$o[1]->client[9]] 	301800
scalar barabasi_100nodes_network.node[9].core_layer 	slots_sent[face$o[2]->node[5]] 	0
scalar barabasi_100nodes_network.node[9].content_store 	p_hit[9] 	0.39662027833002
scalar barabasi_100nodes_network.node[9].content_store 	hits[9] 	1197
scalar barabasi_100nodes_network.node[9].content_store 	misses[9] 	1821
scalar barabasi_100nodes_network.node[9].content_store 	decision_yes[9] 	1821
scalar barabasi_100nodes_network.node[9].content_store 	decision_no[9] 	0
scalar barabasi_100nodes_network.node[9].content_store 	decision_ratio[9] 	1
scalar barabasi_100nodes_network.node[10].core_layer 	interests[10] 	4853
scalar barabasi_100nodes_network.node[10].core_layer 	repo_load[10] 	982
scalar barabasi_100nodes_network.node[10].core_layer 	data[10] 	2568
scalar barabasi_100nodes_network.node[10].core_layer 	slots_sent[face$o[1]->client[10]] 	306700
scalar barabasi_100nodes_network.node[10].core_layer 	slots_sent[face$o[2]->node[0]] 	0
scalar barabasi_100nodes_network.node[10].core_layer 	slots_sent[face$o[3]->node[71]] 	178600
scalar barabasi_100nodes_network.node[10].content_store 	p_hit[10] 	0.26849371522769
scalar barabasi_100nodes_network.node[10].content_store 	hits[10] 	1303
scalar barabasi_100nodes_network.node[10].content_store 	misses[10] 	3550
scalar barabasi_100nodes_network.node[10].content_store 	decision_yes[10] 	2568
scalar barabasi_100nodes_network.node[10].content_store 	decision_no[10] 	982
scalar barabasi_100nodes_network.node[10].content_store 	decision_ratio[10] 	0.72338028169014
scalar barabasi_100nodes_network.node[11].core_layer 	interests[11] 	3085
scalar barabasi_100nodes_network.node[11].core_layer 	repo_load[11] 	935
scalar barabasi_100nodes_network.node[11].core_layer 	data[11] 	1465
scalar barabasi_100nodes_network.node[11].core_layer 	slots_sent[face$o[1]->client[11]] 	308500
scalar barabasi_100nodes_network.node[11].core_layer 	slots_sent[face$o[2]->node[0]] 	0
scalar barabasi_100nodes_network.node[11].content_store 	p_hit[11] 	0.22204213938412
scalar barabasi_100nodes_network.node[11].content_store 	hits[11] 	685
scalar barabasi_100nodes_network.node[11].content_store 	misses[11] 	2400
scalar barabasi_100nodes_network.node[11].content_store 	decision_yes[11] 	1465
scalar barabasi_100nodes_network.node[11].content_store 	decision_no[11] 	935
scalar barabasi_100nodes_network.node[11].content_store 	decision_ratio[11] 	0.61041666666667
scalar barabasi_100nodes_network.node[12].core_layer 	interests[12] 	3089
scalar barabasi_100nodes_network.node[12].core_layer 	data[12] 	1922
scalar barabasi_100nodes_network.node[12].core_layer 	slots_sent[face$o[1]->client[12]] 	308900
scalar barabasi_100nodes_network.node[12].core_layer 	slots_sent[face$o[2]->node[8]] 	0
scalar barabasi_100nodes_network.node[12].content_store 	p_hit[12] 	0.37779216574943
scalar barabasi_100nodes_network.node[12].content_store 	hits[12] 	1167
scalar barabasi_100nodes_network.node[12].content_store 	misses[12] 	1922
scalar barabasi_100nodes_network.node[12].content_store 	decision_yes[12] 	1922
scalar barabasi_100nodes_network.node[12].content_store 	decision_no[12] 	0
scalar barabasi_100nodes_network.node[12].content_store 	decision_ratio[12] 	1
scalar barabasi_100nodes_network.node[13].core_layer 	interests[13] 	9484
scalar barabasi_100nodes_network.node[13].core_layer 	repo_load[13] 	2378
scalar barabasi_100nodes_network.node[13].core_layer 	data[13] 	5390
scalar barabasi_100nodes_network.node[13].core_layer 	slots_sent[face$o[1]->client[13]] 	316200
scalar barabasi_100nodes_network.node[13].core_layer 	slots_sent[face$o[2]->node[2]] 	0
scalar barabasi_100nodes_network.node[13].core_layer 	slots_sent[face$o[3]->node[67]] 	187800
scalar barabasi_100nodes_network.node[13].core_layer 	slots_sent[face$o[4]->node[78]] 	444400
scalar barabasi_100nodes_network.node[13].content_store 	p_hit[13] 	0.18093631379165
scalar barabasi_100nodes_network.node[13].content_store 	hits[13] 	1716
scalar barabasi_100nodes_network.node[13].content_store 	misses[13] 	7768
scalar barabasi_100nodes_network.node[13].content_store 	decision_yes[13] 	5390
scalar barabasi_100nodes_network.node[13].content_store 	decision_no[13] 	2378
scalar barabasi_100nodes_network.node[13].content_store 	decision_ratio[13] 	0.69387229660144
scalar barabasi_100nodes_network.node[14].core_layer 	interests[14] 	3024
scalar barabasi_100nodes_network.node[14].core_layer 	repo_load[14] 	887
scalar barabasi_100nodes_network.node[14].core_layer 	data[14] 	1417
scalar barabasi_100nodes_network.node[14].core_layer 	slots_sent[face$o[1]->client[14]] 	302400
scalar barabasi_100nodes_network.node[14].core_layer 	slots_sent[face$o[2]->node[8]] 	0
scalar barabasi_100nodes_network.node[14].content_store 	p_hit[14] 	0.23809523809524
scalar barabasi_100nodes_network.node[14].content_store 	hits[14] 	720
scalar barabasi_100nodes_network.node[14].content_store 	misses[14] 	2304
scalar barabasi_100nodes_network.node[14].content_store 	decision_yes[14] 	1417
scalar barabasi_100nodes_network.node[14].content_store 	decision_no[14] 	887
scalar barabasi_100nodes_network.node[14].content_store 	decision_ratio[14] 	0.61501736111111
scalar barabasi_100nodes_network.node[15].core_layer 	interests[15] 	6799
scalar barabasi_100nodes_network.node[15].core_layer 	repo_load[15] 	1783
scalar barabasi_100nodes_network.node[15].core_layer 	data[15] 	3667
scalar barabasi_100nodes_network.node[15].core_layer 	slots_sent[face$o[1]->client[15]] 	310600
scalar barabasi_100nodes_network.node[15].core_layer 	slots_sent[face$o[2]->node[0]] 	0
scalar barabasi_100nodes_network.node[15].core_layer 	slots_sent[face$o[3]->node[40]] 	184600
scalar barabasi_100nodes_network.node[15].core_layer 	slots_sent[face$o[4]->node[56]] 	184700
scalar barabasi_100nodes_network.node[15].content_store 	p_hit[15] 	0.19841153110752
scalar barabasi_100nodes_network.node[15].content_store 	hits[15] 	1349
scalar barabasi_100nodes_network.node[15].content_store 	misses[15] 	5450
scalar barabasi_100nodes_network.node[15].content_store 	decision_yes[15] 	3667
scalar barabasi_100nodes_network.node[15].content_store 	decision_no[15] 	1783
scalar barabasi_100nodes_network.node[15].content_store 	decision_ratio[15] 	0.67284403669725
scalar barabasi_100nodes_network.node[16].core_layer 	interests[16] 	12174
scalar barabasi_100nodes_network.node[16].core_layer 	data[16] 	9911
scalar barabasi_100nodes_network.node[16].core_layer 	slots_sent[face$o[1]->client[16]] 	296900
scalar barabasi_100nodes_network.node[16].core_layer 	slots_sent[face$o[2]->node[2]] 	0
scalar barabasi_100nodes_network.node[16].core_layer 	slots_sent[face$o[3]->node[19]] 	730900
scalar barabasi_100nodes_network.node[16].core_layer 	slots_sent[face$o[4]->node[20]] 	189600
scalar barabasi_100nodes_network.node[16].content_store 	p_hit[16] 	0.18588795794316
scalar barabasi_100nodes_network.node[16].content_store 	hits[16] 	2263
scalar barabasi_100nodes_network.node[16].content_store 	misses[16] 	9911
scalar barabasi_100nodes_network.node[16].content_store 	decision_yes[16] 	9911
scalar barabasi_100nodes_network.node[16].content_store 	decision_no[16] 	0
scalar barabasi_100nodes_network.node[16].content_store 	decision_ratio[16] 	1
scalar barabasi_100nodes_network.node[17].core_layer 	interests[17] 	3055
scalar barabasi_100nodes_network.node[17].core_layer 	repo_load[17] 	706
scalar barabasi_100nodes_network.node[17].core_layer 	data[17] 	1450
scalar barabasi_100nodes_network.node[17].core_layer 	slots_sent[face$o[1]->client[17]] 	305500
scalar barabasi_100nodes_network.node[17].core_layer 	slots_sent[face$o[2]->node[8]] 	0
scalar barabasi_100nodes_network.node[17].content_store 	p_hit[17] 	0.29427168576105
scalar barabasi_100nodes_network.node[17].content_store 	hits[17] 	899
scalar barabasi_100nodes_network.node[17].content_store 	misses[17] 	2156
scalar barabasi_100nodes_network.node[17].content_store 	decision_yes[17] 	1450
scalar barabasi_100nodes_network.node[17].content_store 	decision_no[17] 	706
scalar barabasi_100nodes_network.node[17].content_store 	decision_ratio[17] 	0.67254174397032
scalar barabasi_100nodes_network.node[18].core_layer 	interests[18] 	8691
scalar barabasi_100nodes_network.node[18].core_layer 	data[18] 	6381
scalar barabasi_100nodes_network.node[18].core_layer 	slots_sent[face$o[1]->client[18]] 	305800
scalar barabasi_100nodes_network.node[18].core_layer 	slots_sent[face$o[2]->node[2]] 	0
scalar barabasi_100nodes_network.node[18].core_layer 	slots_sent[face$o[3]->node[53]] 	188400
scalar barabasi_100nodes_network.node[18].core_layer 	slots_sent[face$o[4]->node[68]] 	186200
scalar barabasi_100nodes_network.node[18].core_layer 	slots_sent[face$o[5]->node[72]] 	188700
scalar barabasi_100nodes_network.node[18].content_store 	p_hit[18] 	0.26579219882637
scalar barabasi_100nodes_network.node[18].content_store 	hits[18] 	2310
scalar barabasi_100nodes_network.node[18].content_store 	misses[18] 	6381
scalar barabasi_100nodes_network.node[18].content_store 	decision_yes[18] 	6381
scalar barabasi_100nodes_network.node[18].content_store 	decision_no[18] 	0
scalar barabasi_100nodes_network.node[18].content_store 	decision_ratio[18] 	1
scalar barabasi_100nodes_network.node[19].core_layer 	interests[19] 	10078
scalar barabasi_100nodes_network.node[19].core_layer 	data[19] 	7309
scalar barabasi_100nodes_network.node[19].core_layer 	slots_sent[face$o[1]->client[19]] 	311700
scalar barabasi_100nodes_network.node[19].core_layer 	slots_sent[face$o[2]->node[16]] 	0
scalar barabasi_100nodes_network.node[19].core_layer 	slots_sent[face$o[3]->node[63]] 	185800
scalar barabasi_100nodes_network.node[19].core_layer 	slots_sent[face$o[4]->node[70]] 	189800
scalar barabasi_100nodes_network.node[19].core_layer 	slots_sent[face$o[5]->node[80]] 	187800
scalar barabasi_100nodes_network.node[19].core_layer 	slots_sent[face$o[6]->node[89]] 	132700
scalar barabasi_100nodes_network.node[19].content_store 	p_hit[19] 	0.27475689620957
scalar barabasi_100nodes_network.node[19].content_store 	hits[19] 	2769
scalar barabasi_100nodes_network.node[19].content_store 	misses[19] 	7309
scalar barabasi_100nodes_network.node[19].content_store 	decision_yes[19] 	7309
scalar barabasi_100nodes_network.node[19].content_store 	decision_no[19] 	0
scalar barabasi_100nodes_network.node[19].content_store 	decision_ratio[19] 	1
scalar barabasi_100nodes_network.node[20].core_layer 	interests[20] 	3109
scalar barabasi_100nodes_network.node[20].core_layer 	data[20] 	1896
scalar barabasi_100nodes_network.node[20].core_layer 	slots_sent[face$o[1]->client[20]] 	310900
scalar barabasi_100nodes_network.node[20].core_layer 	slots_sent[face$o[2]->node[16]] 	0
scalar barabasi_100nodes_network.node[20].content_store 	p_hit[20] 	0.39015760694757
scalar barabasi_100nodes_network.node[20].content_store 	hits[20] 	1213
scalar barabasi_100nodes_network.node[20].content_store 	misses[20] 	1896
scalar barabasi_100nodes_network.node[20].content_store 	decision_yes[20] 	1896
scalar barabasi_100nodes_network.node[20].content_store 	decision_no[20] 	0
scalar barabasi_100nodes_network.node[20].content_store 	decision_ratio[20] 	1
scalar barabasi_100nodes_network.node[21].core_layer 	interests[21] 	6710
scalar barabasi_100nodes_network.node[21].core_layer 	data[21] 	4858
scalar barabasi_100nodes_network.node[21].core_layer 	slots_sent[face$o[1]->client[21]] 	299900
scalar barabasi_100nodes_network.node[21].core_layer 	slots_sent[face$o[2]->node[0]] 	0
scalar barabasi_100nodes_network.node[21].core_layer 	slots_sent[face$o[3]->node[24]] 	182100
scalar barabasi_100nodes_network.node[21].core_layer 	slots_sent[face$o[4]->node[57]] 	189000
scalar barabasi_100nodes_network.node[21].content_store 	p_hit[21] 	0.27600596125186
scalar barabasi_100nodes_network.node[21].content_store 	hits[21] 	1852
scalar barabasi_100nodes_network.node[21].content_store 	misses[21] 	4858
scalar barabasi_100nodes_network.node[21].content_store 	decision_yes[21] 	4858
scalar barabasi_100nodes_network.node[21].content_store 	decision_no[21] 	0
scalar barabasi_100nodes_network.node[21].content_store 	decision_ratio[21] 	1
scalar barabasi_100nodes_network.node[22].core_layer 	interests[22] 	3020
scalar barabasi_100nodes_network.node[22].core_layer 	data[22] 	1840
scalar barabasi_100nodes_network.node[22].core_layer 	slots_sent[face$o[1]->client[22]] 	302000
scalar barabasi_100nodes_network.node[22].core_layer 	slots_sent[face$o[2]->node[0]] 	0
scalar barabasi_100nodes_network.node[22].content_store 	p_hit[22] 	0.39072847682119
scalar barabasi_100nodes_network.node[22].content_store 	hits[22] 	1180
scalar barabasi_100nodes_network.node[22].content_store 	misses[22] 	1840
scalar barabasi_100nodes_network.node[22].content_store 	decision_yes[22] 	1840
scalar barabasi_100nodes_network.node[22].content_store 	decision_no[22] 	0
scalar barabasi_100nodes_network.node[22].content_store 	decision_ratio[22] 	1
scalar barabasi_100nodes_network.node[23].core_layer 	interests[23] 	36563
scalar barabasi_100nodes_network.node[23].core_layer 	data[23] 	33055
scalar barabasi_100nodes_network.node[23].core_layer 	slots_sent[face$o[1]->client[23]] 	296000
scalar barabasi_100nodes_network.node[23].core_layer 	slots_sent[face$o[2]->node[7]] 	2409400
scalar barabasi_100nodes_network.node[23].core_layer 	slots_sent[face$o[3]->node[46]] 	258600
scalar barabasi_100nodes_network.node[23].core_layer 	slots_sent[face$o[4]->node[47]] 	142100
scalar barabasi_100nodes_network.node[23].core_layer 	slots_sent[face$o[5]->node[51]] 	179200
scalar barabasi_100nodes_network.node[23].core_layer 	slots_sent[face$o[6]->node[83]] 	184300
scalar barabasi_100nodes_network.node[23].core_layer 	slots_sent[face$o[7]->node[86]] 	186700
scalar barabasi_100nodes_network.node[23].content_store 	p_hit[23] 	0.095943987090775
scalar barabasi_100nodes_network.node[23].content_store 	hits[23] 	3508
scalar barabasi_100nodes_network.node[23].content_store 	misses[23] 	33055
scalar barabasi_100nodes_network.node[23].content_store 	decision_yes[23] 	33055
scalar barabasi_100nodes_network.node[23].content_store 	decision_no[23] 	0
scalar barabasi_100nodes_network.node[23].content_store 	decision_ratio[23] 	1
scalar barabasi_100nodes_network.node[24].core_layer 	interests[24] 	2973
scalar barabasi_100nodes_network.node[24].core_layer 	data[24] 	1821
scalar barabasi_100nodes_network.node[24].core_layer 	slots_sent[face$o[1]->client[24]] 	297300
scalar barabasi_100nodes_network.node[24].core_layer 	slots_sent[face$o[2]->node[21]] 	0
scalar barabasi_100nodes_network.node[24].content_store 	p_hit[24] 	0.3874873864783
scalar barabasi_100nodes_network.node[24].content_store 	hits[24] 	1152
scalar barabasi_100nodes_network.node[24].content_store 	misses[24] 	1821
scalar barabasi_100nodes_network.node[24].content_store 	decision_yes[24] 	1821
scalar barabasi_100nodes_network.node[24].content_store 	decision_no[24] 	0
scalar barabasi_100nodes_network.node[24].content_store 	decision_ratio[24] 	1
scalar barabasi_100nodes_network.node[25].core_layer 	interests[25] 	4862
scalar barabasi_100nodes_network.node[25].core_layer 	data[25] 	3346
scalar barabasi_100nodes_network.node[25].core_layer 	slots_sent[face$o[1]->client[25]] 	304900
scalar barabasi_100nodes_network.node[25].core_layer 	slots_sent[face$o[2]->node[2]] 	0
scalar barabasi_100nodes_network.node[25].core_layer 	slots_sent[face$o[3]->node[38]] 	181300
scalar barabasi_100nodes_network.node[25].content_store 	p_hit[25] 	0.31180584121761
scalar barabasi_100nodes_network.node[25].content_store 	hits[25] 	1516
scalar barabasi_100nodes_network.node[25].content_store 	misses[25] 	3346
scalar barabasi_100nodes_network.node[25].content_store 	decision_yes[25] 	3346
scalar barabasi_100nodes_network.node[25].content_store 	decision_no[25] 	0
scalar barabasi_100nodes_network.node[25].content_store 	decision_ratio[25] 	1
scalar barabasi_100nodes_network.node[26].core_layer 	interests[26] 	8307
scalar barabasi_100nodes_network.node[26].core_layer 	data[26] 	6225
scalar barabasi_100nodes_network.node[26].core_layer 	slots_sent[face$o[1]->client[26]] 	311800
scalar barabasi_100nodes_network.node[26].core_layer 	slots_sent[face$o[2]->node[2]] 	0
scalar barabasi_100nodes_network.node[26].core_layer 	slots_sent[face$o[3]->node[77]] 	341500
scalar barabasi_100nodes_network.node[26].core_layer 	slots_sent[face$o[4]->node[91]] 	177400
scalar barabasi_100nodes_network.node[26].content_store 	p_hit[26] 	0.25063199711087
scalar barabasi_100nodes_network.node[26].content_store 	hits[26] 	2082
scalar barabasi_100nodes_network.node[26].content_store 	misses[26] 	6225
scalar barabasi_100nodes_network.node[26].content_store 	decision_yes[26] 	6225
scalar barabasi_100nodes_network.node[26].content_store 	decision_no[26] 	0
scalar barabasi_100nodes_network.node[26].content_store 	decision_ratio[26] 	1
scalar barabasi_100nodes_network.node[27].core_layer 	interests[27] 	4880
scalar barabasi_100nodes_network.node[27].core_layer 	data[27] 	3445
scalar barabasi_100nodes_network.node[27].core_layer 	slots_sent[face$o[1]->client[27]] 	300500
scalar barabasi_100nodes_network.node[27].core_layer 	slots_sent[face$o[2]->node[4]] 	0
scalar barabasi_100nodes_network.node[27].core_layer 	slots_sent[face$o[3]->node[99]] 	187500
scalar barabasi_100nodes_network.node[27].content_store 	p_hit[27] 	0.29405737704918
scalar barabasi_100nodes_network.node[27].content_store 	hits[27] 	1435
scalar barabasi_100nodes_network.node[27].content_store 	misses[27] 	3445
scalar barabasi_100nodes_network.node[27].content_store 	decision_yes[27] 	3445
scalar barabasi_100nodes_network.node[27].content_store 	decision_no[27] 	0
scalar barabasi_100nodes_network.node[27].content_store 	decision_ratio[27] 	1
scalar barabasi_100nodes_network.node[28].core_layer 	interests[28] 	3070
scalar barabasi_100nodes_network.node[28].core_layer 	data[28] 	1928
scalar barabasi_100nodes_network.node[28].core_layer 	slots_sent[face$o[1]->client[28]] 	307000
scalar barabasi_100nodes_network.node[28].core_layer 	slots_sent[face$o[2]->node[0]] 	0
scalar barabasi_100nodes_network.node[28].content_store 	p_hit[28] 	0.37198697068404
scalar barabasi_100nodes_network.node[28].content_store 	hits[28] 	1142
scalar barabasi_100nodes_network.node[28].content_store 	misses[28] 	1928
scalar barabasi_100nodes_network.node[28].content_store 	decision_yes[28] 	1928
scalar barabasi_100nodes_network.node[28].content_store 	decision_no[28] 	0
scalar barabasi_100nodes_network.node[28].content_store 	decision_ratio[28] 	1
scalar barabasi_100nodes_network.node[29].core_layer 	interests[29] 	2962
scalar barabasi_100nodes_network.node[29].core_layer 	data[29] 	1856
scalar barabasi_100nodes_network.node[29].core_layer 	slots_sent[face$o[1]->client[29]] 	296200
scalar barabasi_100nodes_network.node[29].core_layer 	slots_sent[face$o[2]->node[2]] 	0
scalar barabasi_100nodes_network.node[29].content_store 	p_hit[29] 	0.37339635381499
scalar barabasi_100nodes_network.node[29].content_store 	hits[29] 	1106
scalar barabasi_100nodes_network.node[29].content_store 	misses[29] 	1856
scalar barabasi_100nodes_network.node[29].content_store 	decision_yes[29] 	1856
scalar barabasi_100nodes_network.node[29].content_store 	decision_no[29] 	0
scalar barabasi_100nodes_network.node[29].content_store 	decision_ratio[29] 	1
scalar barabasi_100nodes_network.node[30].core_layer 	interests[30] 	5038
scalar barabasi_100nodes_network.node[30].core_layer 	data[30] 	3541
scalar barabasi_100nodes_network.node[30].core_layer 	slots_sent[face$o[1]->client[30]] 	313300
scalar barabasi_100nodes_network.node[30].core_layer 	slots_sent[face$o[2]->node[4]] 	0
scalar barabasi_100nodes_network.node[30].core_layer 	slots_sent[face$o[3]->node[88]] 	190500
scalar barabasi_100nodes_network.node[30].content_store 	p_hit[30] 	0.29714172290592
scalar barabasi_100nodes_network.node[30].content_store 	hits[30] 	1497
scalar barabasi_100nodes_network.node[30].content_store 	misses[30] 	3541
scalar barabasi_100nodes_network.node[30].content_store 	decision_yes[30] 	3541
scalar barabasi_100nodes_network.node[30].content_store 	decision_no[30] 	0
scalar barabasi_100nodes_network.node[30].content_store 	decision_ratio[30] 	1
scalar barabasi_100nodes_network.node[31].core_layer 	interests[31] 	7476
scalar barabasi_100nodes_network.node[31].core_layer 	data[31] 	5945
scalar barabasi_100nodes_network.node[31].core_layer 	slots_sent[face$o[1]->client[31]] 	296200
scalar barabasi_100nodes_network.node[31].core_layer 	slots_sent[face$o[2]->node[7]] 	0
scalar barabasi_100nodes_network.node[31].core_layer 	slots_sent[face$o[3]->node[65]] 	451400
scalar barabasi_100nodes_network.node[31].content_store 	p_hit[31] 	0.20478865703585
scalar barabasi_100nodes_network.node[31].content_store 	hits[31] 	1531
scalar barabasi_100nodes_network.node[31].content_store 	misses[31] 	5945
scalar barabasi_100nodes_network.node[31].content_store 	decision_yes[31] 	5945
scalar barabasi_100nodes_network.node[31].content_store 	decision_no[31] 	0
scalar barabasi_100nodes_network.node[31].content_store 	decision_ratio[31] 	1
scalar barabasi_100nodes_network.node[32].core_layer 	interests[32] 	6729
scalar barabasi_100nodes_network.node[32].core_layer 	data[32] 	4861
scalar barabasi_100nodes_network.node[32].core_layer 	slots_sent[face$o[1]->client[32]] 	302200
scalar barabasi_100nodes_network.node[32].core_layer 	slots_sent[face$o[2]->node[2]] 	0
scalar barabasi_100nodes_network.node[32].core_layer 	slots_sent[face$o[3]->node[43]] 	188800
scalar barabasi_100nodes_network.node[32].core_layer 	slots_sent[face$o[4]->node[64]] 	181900
scalar barabasi_100nodes_network.node[32].content_store 	p_hit[32] 	0.27760439887056
scalar barabasi_100nodes_network.node[32].content_store 	hits[32] 	1868
scalar barabasi_100nodes_network.node[32].content_store 	misses[32] 	4861
scalar barabasi_100nodes_network.node[32].content_store 	decision_yes[32] 	4861
scalar barabasi_100nodes_network.node[32].content_store 	decision_no[32] 	0
scalar barabasi_100nodes_network.node[32].content_store 	decision_ratio[32] 	1
scalar barabasi_100nodes_network.node[33].core_layer 	interests[33] 	3090
scalar barabasi_100nodes_network.node[33].core_layer 	data[33] 	1887
scalar barabasi_100nodes_network.node[33].core_layer 	slots_sent[face$o[1]->client[33]] 	309000
scalar barabasi_100nodes_network.node[33].core_layer 	slots_sent[face$o[2]->node[2]] 	0
scalar barabasi_100nodes_network.node[33].content_store 	p_hit[33] 	0.38932038834951
scalar barabasi_100nodes_network.node[33].content_store 	hits[33] 	1203
scalar barabasi_100nodes_network.node[33].content_store 	misses[33] 	1887
scalar barabasi_100nodes_network.node[33].content_store 	decision_yes[33] 	1887
scalar barabasi_100nodes_network.node[33].content_store 	decision_no[33] 	0
scalar barabasi_100nodes_network.node[33].content_store 	decision_ratio[33] 	1
scalar barabasi_100nodes_network.node[34].core_layer 	interests[34] 	3108
scalar barabasi_100nodes_network.node[34].core_layer 	data[34] 	1931
scalar barabasi_100nodes_network.node[34].core_layer 	slots_sent[face$o[1]->client[34]] 	310800
scalar barabasi_100nodes_network.node[34].core_layer 	slots_sent[face$o[2]->node[2]] 	0
scalar barabasi_100nodes_network.node[34].content_store 	p_hit[34] 	0.37870012870013
scalar barabasi_100nodes_network.node[34].content_store 	hits[34] 	1177
scalar barabasi_100nodes_network.node[34].content_store 	misses[34] 	1931
scalar barabasi_100nodes_network.node[34].content_store 	decision_yes[34] 	1931
scalar barabasi_100nodes_network.node[34].content_store 	decision_no[34] 	0
scalar barabasi_100nodes_network.node[34].content_store 	decision_ratio[34] 	1
scalar barabasi_100nodes_network.node[35].core_layer 	interests[35] 	4936
scalar barabasi_100nodes_network.node[35].core_layer 	data[35] 	3464
scalar barabasi_100nodes_network.node[35].core_layer 	slots_sent[face$o[1]->client[35]] 	305300
scalar barabasi_100nodes_network.node[35].core_layer 	slots_sent[face$o[2]->node[5]] 	0
scalar barabasi_100nodes_network.node[35].core_layer 	slots_sent[face$o[3]->node[50]] 	188300
scalar barabasi_100nodes_network.node[35].content_store 	p_hit[35] 	0.29821717990276
scalar barabasi_100nodes_network.node[35].content_store 	hits[35] 	1472
scalar barabasi_100nodes_network.node[35].content_store 	misses[35] 	3464
scalar barabasi_100nodes_network.node[35].content_store 	decision_yes[35] 	3464
scalar barabasi_100nodes_network.node[35].content_store 	decision_no[35] 	0
scalar barabasi_100nodes_network.node[35].content_store 	decision_ratio[35] 	1
scalar barabasi_100nodes_network.node[36].core_layer 	interests[36] 	4882
scalar barabasi_100nodes_network.node[36].core_layer 	data[36] 	3462
scalar barabasi_100nodes_network.node[36].core_layer 	slots_sent[face$o[1]->client[36]] 	295400
scalar barabasi_100nodes_network.node[36].core_layer 	slots_sent[face$o[2]->node[2]] 	0
scalar barabasi_100nodes_network.node[36].core_layer 	slots_sent[face$o[3]->node[75]] 	192800
scalar barabasi_100nodes_network.node[36].content_store 	p_hit[36] 	0.29086439983613
scalar barabasi_100nodes_network.node[36].content_store 	hits[36] 	1420
scalar barabasi_100nodes_network.node[36].content_store 	misses[36] 	3462
scalar barabasi_100nodes_network.node[36].content_store 	decision_yes[36] 	3462
scalar barabasi_100nodes_network.node[36].content_store 	decision_no[36] 	0
scalar barabasi_100nodes_network.node[36].content_store 	decision_ratio[36] 	1
scalar barabasi_100nodes_network.node[37].core_layer 	interests[37] 	3053
scalar barabasi_100nodes_network.node[37].core_layer 	data[37] 	1845
scalar barabasi_100nodes_network.node[37].core_layer 	slots_sent[face$o[1]->client[37]] 	305200
scalar barabasi_100nodes_network.node[37].core_layer 	slots_sent[face$o[2]->node[0]] 	0
scalar barabasi_100nodes_network.node[37].content_store 	p_hit[37] 	0.3953488372093
scalar barabasi_100nodes_network.node[37].content_store 	hits[37] 	1207
scalar barabasi_100nodes_network.node[37].content_store 	misses[37] 	1846
scalar barabasi_100nodes_network.node[37].content_store 	decision_yes[37] 	1845
scalar barabasi_100nodes_network.node[37].content_store 	decision_no[37] 	0
scalar barabasi_100nodes_network.node[37].content_store 	decision_ratio[37] 	1
scalar barabasi_100nodes_network.node[38].core_layer 	interests[38] 	3032
scalar barabasi_100nodes_network.node[38].core_layer 	data[38] 	1813
scalar barabasi_100nodes_network.node[38].core_layer 	slots_sent[face$o[1]->client[38]] 	303200
scalar barabasi_100nodes_network.node[38].core_layer 	slots_sent[face$o[2]->node[25]] 	0
scalar barabasi_100nodes_network.node[38].content_store 	p_hit[38] 	0.40204485488127
scalar barabasi_100nodes_network.node[38].content_store 	hits[38] 	1219
scalar barabasi_100nodes_network.node[38].content_store 	misses[38] 	1813
scalar barabasi_100nodes_network.node[38].content_store 	decision_yes[38] 	1813
scalar barabasi_100nodes_network.node[38].content_store 	decision_no[38] 	0
scalar barabasi_100nodes_network.node[38].content_store 	decision_ratio[38] 	1
scalar barabasi_100nodes_network.node[39].core_layer 	interests[39] 	4935
scalar barabasi_100nodes_network.node[39].core_layer 	data[39] 	3497
scalar barabasi_100nodes_network.node[39].core_layer 	slots_sent[face$o[1]->client[39]] 	303000
scalar barabasi_100nodes_network.node[39].core_layer 	slots_sent[face$o[2]->node[8]] 	0
scalar barabasi_100nodes_network.node[39].core_layer 	slots_sent[face$o[3]->node[60]] 	190500
scalar barabasi_100nodes_network.node[39].content_store 	p_hit[39] 	0.29138804457953
scalar barabasi_100nodes_network.node[39].content_store 	hits[39] 	1438
scalar barabasi_100nodes_network.node[39].content_store 	misses[39] 	3497
scalar barabasi_100nodes_network.node[39].content_store 	decision_yes[39] 	3497
scalar barabasi_100nodes_network.node[39].content_store 	decision_no[39] 	0
scalar barabasi_100nodes_network.node[39].content_store 	decision_ratio[39] 	1
scalar barabasi_100nodes_network.node[40].core_layer 	interests[40] 	3005
scalar barabasi_100nodes_network.node[40].core_layer 	data[40] 	1846
scalar barabasi_100nodes_network.node[40].core_layer 	slots_sent[face$o[1]->client[40]] 	300500
scalar barabasi_100nodes_network.node[40].core_layer 	slots_sent[face$o[2]->node[15]] 	0
scalar barabasi_100nodes_network.node[40].content_store 	p_hit[40] 	0.38569051580699
scalar barabasi_100nodes_network.node[40].content_store 	hits[40] 	1159
scalar barabasi_100nodes_network.node[40].content_store 	misses[40] 	1846
scalar barabasi_100nodes_network.node[40].content_store 	decision_yes[40] 	1846
scalar barabasi_100nodes_network.node[40].content_store 	decision_no[40] 	0
scalar barabasi_100nodes_network.node[40].content_store 	decision_ratio[40] 	1
scalar barabasi_100nodes_network.node[41].core_layer 	interests[41] 	68505
scalar barabasi_100nodes_network.node[41].core_layer 	data[41] 	60752
scalar barabasi_100nodes_network.node[41].core_layer 	slots_sent[face$o[1]->client[41]] 	299300
scalar barabasi_100nodes_network.node[41].core_layer 	slots_sent[face$o[2]->node[2]] 	5572400
scalar barabasi_100nodes_network.node[41].core_layer 	slots_sent[face$o[3]->node[42]] 	192400
scalar barabasi_100nodes_network.node[41].core_layer 	slots_sent[face$o[4]->node[48]] 	181700
scalar barabasi_100nodes_network.node[41].core_layer 	slots_sent[face$o[5]->node[54]] 	330300
scalar barabasi_100nodes_network.node[41].core_layer 	slots_sent[face$o[6]->node[55]] 	140000
scalar barabasi_100nodes_network.node[41].core_layer 	slots_sent[face$o[7]->node[69]] 	134400
scalar barabasi_100nodes_network.node[41].content_store 	p_hit[41] 	0.11317422085979
scalar barabasi_100nodes_network.node[41].content_store 	hits[41] 	7753
scalar barabasi_100nodes_network.node[41].content_store 	misses[41] 	60752
scalar barabasi_100nodes_network.node[41].content_store 	decision_yes[41] 	60752
scalar barabasi_100nodes_network.node[41].content_store 	decision_no[41] 	0
scalar barabasi_100nodes_network.node[41].content_store 	decision_ratio[41] 	1
scalar barabasi_100nodes_network.node[42].core_layer 	interests[42] 	3127
scalar barabasi_100nodes_network.node[42].core_layer 	data[42] 	1924
scalar barabasi_100nodes_network.node[42].core_layer 	slots_sent[face$o[1]->client[42]] 	312700
scalar barabasi_100nodes_network.node[42].core_layer 	slots_sent[face$o[2]->node[41]] 	0
scalar barabasi_100nodes_network.node[42].content_store 	p_hit[42] 	0.38471378317877
scalar barabasi_100nodes_network.node[42].content_store 	hits[42] 	1203
scalar barabasi_100nodes_network.node[42].content_store 	misses[42] 	1924
scalar barabasi_100nodes_network.node[42].content_store 	decision_yes[42] 	1924
scalar barabasi_100nodes_network.node[42].content_store 	decision_no[42] 	0
scalar barabasi_100nodes_network.node[42].content_store 	decision_ratio[42] 	1
scalar barabasi_100nodes_network.node[43].core_layer 	interests[43] 	3089
scalar barabasi_100nodes_network.node[43].core_layer 	data[43] 	1888
scalar barabasi_100nodes_network.node[43].core_layer 	slots_sent[face$o[1]->client[43]] 	308900
scalar barabasi_100nodes_network.node[43].core_layer 	slots_sent[face$o[2]->node[32]] 	0
scalar barabasi_100nodes_network.node[43].content_store 	p_hit[43] 	0.38879896406604
scalar barabasi_100nodes_network.node[43].content_store 	hits[43] 	1201
scalar barabasi_100nodes_network.node[43].content_store 	misses[43] 	1888
scalar barabasi_100nodes_network.node[43].content_store 	decision_yes[43] 	1888
scalar barabasi_100nodes_network.node[43].content_store 	decision_no[43] 	0
scalar barabasi_100nodes_network.node[43].content_store 	decision_ratio[43] 	1
scalar barabasi_100nodes_network.node[44].core_layer 	interests[44] 	2991
scalar barabasi_100nodes_network.node[44].core_layer 	data[44] 	1812
scalar barabasi_100nodes_network.node[44].core_layer 	slots_sent[face$o[1]->client[44]] 	299100
scalar barabasi_100nodes_network.node[44].core_layer 	slots_sent[face$o[2]->node[0]] 	0
scalar barabasi_100nodes_network.node[44].content_store 	p_hit[44] 	0.39418254764293
scalar barabasi_100nodes_network.node[44].content_store 	hits[44] 	1179
scalar barabasi_100nodes_network.node[44].content_store 	misses[44] 	1812
scalar barabasi_100nodes_network.node[44].content_store 	decision_yes[44] 	1812
scalar barabasi_100nodes_network.node[44].content_store 	decision_no[44] 	0
scalar barabasi_100nodes_network.node[44].content_store 	decision_ratio[44] 	1
scalar barabasi_100nodes_network.node[45].core_layer 	interests[45] 	2902
scalar barabasi_100nodes_network.node[45].core_layer 	data[45] 	1804
scalar barabasi_100nodes_network.node[45].core_layer 	slots_sent[face$o[1]->client[45]] 	290200
scalar barabasi_100nodes_network.node[45].core_layer 	slots_sent[face$o[2]->node[2]] 	0
scalar barabasi_100nodes_network.node[45].content_store 	p_hit[45] 	0.37835975189524
scalar barabasi_100nodes_network.node[45].content_store 	hits[45] 	1098
scalar barabasi_100nodes_network.node[45].content_store 	misses[45] 	1804
scalar barabasi_100nodes_network.node[45].content_store 	decision_yes[45] 	1804
scalar barabasi_100nodes_network.node[45].content_store 	decision_no[45] 	0
scalar barabasi_100nodes_network.node[45].content_store 	decision_ratio[45] 	1
scalar barabasi_100nodes_network.node[46].core_layer 	interests[46] 	29890
scalar barabasi_100nodes_network.node[46].core_layer 	repo_load[46] 	26388
scalar barabasi_100nodes_network.node[46].core_layer 	data[46] 	2586
scalar barabasi_100nodes_network.node[46].core_layer 	slots_sent[face$o[1]->client[46]] 	294100
scalar barabasi_100nodes_network.node[46].core_layer 	slots_sent[face$o[2]->node[23]] 	2507400
scalar barabasi_100nodes_network.node[46].core_layer 	slots_sent[face$o[3]->node[82]] 	187500
scalar barabasi_100nodes_network.node[46].content_store 	p_hit[46] 	0.030645700903312
scalar barabasi_100nodes_network.node[46].content_store 	hits[46] 	916
scalar barabasi_100nodes_network.node[46].content_store 	misses[46] 	28974
scalar barabasi_100nodes_network.node[46].content_store 	decision_yes[46] 	2586
scalar barabasi_100nodes_network.node[46].content_store 	decision_no[46] 	26388
scalar barabasi_100nodes_network.node[46].content_store 	decision_ratio[46] 	0.089252433215987
scalar barabasi_100nodes_network.node[47].core_layer 	interests[47] 	2962
scalar barabasi_100nodes_network.node[47].core_layer 	repo_load[47] 	532
scalar barabasi_100nodes_network.node[47].core_layer 	data[47] 	1421
scalar barabasi_100nodes_network.node[47].core_layer 	slots_sent[face$o[1]->client[47]] 	296200
scalar barabasi_100nodes_network.node[47].core_layer 	slots_sent[face$o[2]->node[23]] 	0
scalar barabasi_100nodes_network.node[47].content_store 	p_hit[47] 	0.34064821066847
scalar barabasi_100nodes_network.node[47].content_store 	hits[47] 	1009
scalar barabasi_100nodes_network.node[47].content_store 	misses[47] 	1953
scalar barabasi_100nodes_network.node[47].content_store 	decision_yes[47] 	1421
scalar barabasi_100nodes_network.node[47].content_store 	decision_no[47] 	532
scalar barabasi_100nodes_network.node[47].content_store 	decision_ratio[47] 	0.72759856630824
scalar barabasi_100nodes_network.node[48].core_layer 	interests[48] 	3018
scalar barabasi_100nodes_network.node[48].core_layer 	data[48] 	1817
scalar barabasi_100nodes_network.node[48].core_layer 	slots_sent[face$o[1]->client[48]] 	301800
scalar barabasi_100nodes_network.node[48].core_layer 	slots_sent[face$o[2]->node[41]] 	0
scalar barabasi_100nodes_network.node[48].content_store 	p_hit[48] 	0.39794565937707
scalar barabasi_100nodes_network.node[48].content_store 	hits[48] 	1201
scalar barabasi_100nodes_network.node[48].content_store 	misses[48] 	1817
scalar barabasi_100nodes_network.node[48].content_store 	decision_yes[48] 	1817
scalar barabasi_100nodes_network.node[48].content_store 	decision_no[48] 	0
scalar barabasi_100nodes_network.node[48].content_store 	decision_ratio[48] 	1
scalar barabasi_100nodes_network.node[49].core_layer 	interests[49] 	3000
scalar barabasi_100nodes_network.node[49].core_layer 	data[49] 	1882
scalar barabasi_100nodes_network.node[49].core_layer 	slots_sent[face$o[1]->client[49]] 	300000
scalar barabasi_100nodes_network.node[49].core_layer 	slots_sent[face$o[2]->node[7]] 	0
scalar barabasi_100nodes_network.node[49].content_store 	p_hit[49] 	0.37266666666667
scalar barabasi_100nodes_network.node[49].content_store 	hits[49] 	1118
scalar barabasi_100nodes_network.node[49].content_store 	misses[49] 	1882
scalar barabasi_100nodes_network.node[49].content_store 	decision_yes[49] 	1882
scalar barabasi_100nodes_network.node[49].content_store 	decision_no[49] 	0
scalar barabasi_100nodes_network.node[49].content_store 	decision_ratio[49] 	1
scalar barabasi_100nodes_network.node[50].core_layer 	interests[50] 	2978
scalar barabasi_100nodes_network.node[50].core_layer 	data[50] 	1883
scalar barabasi_100nodes_network.node[50].core_layer 	slots_sent[face$o[1]->client[50]] 	297800
scalar barabasi_100nodes_network.node[50].core_layer 	slots_sent[face$o[2]->node[35]] 	0
scalar barabasi_100nodes_network.node[50].content_store 	p_hit[50] 	0.36769644056414
scalar barabasi_100nodes_network.node[50].content_store 	hits[50] 	1095
scalar barabasi_100nodes_network.node[50].content_store 	misses[50] 	1883
scalar barabasi_100nodes_network.node[50].content_store 	decision_yes[50] 	1883
scalar barabasi_100nodes_network.node[50].content_store 	decision_no[50] 	0
scalar barabasi_100nodes_network.node[50].content_store 	decision_ratio[50] 	1
scalar barabasi_100nodes_network.node[51].core_layer 	interests[51] 	2897
scalar barabasi_100nodes_network.node[51].core_layer 	data[51] 	1792
scalar barabasi_100nodes_network.node[51].core_layer 	slots_sent[face$o[1]->client[51]] 	289700
scalar barabasi_100nodes_network.node[51].core_layer 	slots_sent[face$o[2]->node[23]] 	0
scalar barabasi_100nodes_network.node[51].content_store 	p_hit[51] 	0.38142906454953
scalar barabasi_100nodes_network.node[51].content_store 	hits[51] 	1105
[...]
scalar barabasi_100nodes_network.client[8] 	hdistance[8].real 	1.6901502504174
scalar barabasi_100nodes_network.client[8] 	downloads[8].real 	2995
scalar barabasi_100nodes_network.client[8] 	avg_time[8].real 	0
scalar barabasi_100nodes_network.client[9] 	hdistance[9].real 	2.5444002650762
scalar barabasi_100nodes_network.client[9] 	downloads[9].real 	3018
scalar barabasi_100nodes_network.client[9] 	avg_time[9].real 	0
scalar barabasi_100nodes_network.client[10] 	hdistance[10].real 	1.6827518747962
scalar barabasi_100nodes_network.client[10] 	downloads[10].real 	3067
scalar barabasi_100nodes_network.client[10] 	avg_time[10].real 	0
scalar barabasi_100nodes_network.client[11] 	hdistance[11].real 	2.2097244732577
scalar barabasi_100nodes_network.client[11] 	downloads[11].real 	3085
scalar barabasi_100nodes_network.client[11] 	avg_time[11].real 	0
scalar barabasi_100nodes_network.client[12] 	hdistance[12].real 	2.3476853350599
scalar barabasi_100nodes_network.client[12] 	downloads[12].real 	3089
scalar barabasi_100nodes_network.client[12] 	avg_time[12].real 	0
scalar barabasi_100nodes_network.client[13] 	hdistance[13].real 	1.6024667931689
scalar barabasi_100nodes_network.client[13] 	downloads[13].real 	3162
scalar barabasi_100nodes_network.client[13] 	avg_time[13].real 	0
scalar barabasi_100nodes_network.client[14] 	hdistance[14].real 	1.9980158730159
scalar barabasi_100nodes_network.client[14] 	downloads[14].real 	3024
scalar barabasi_100nodes_network.client[14] 	avg_time[14].real 	0
scalar barabasi_100nodes_network.client[15] 	hdistance[15].real 	1.7057308435287
scalar barabasi_100nodes_network.client[15] 	downloads[15].real 	3106
scalar barabasi_100nodes_network.client[15] 	avg_time[15].real 	0
scalar barabasi_100nodes_network.client[16] 	hdistance[16].real 	1.7467160660155
scalar barabasi_100nodes_network.client[16] 	downloads[16].real 	2969
scalar barabasi_100nodes_network.client[16] 	avg_time[16].real 	0
scalar barabasi_100nodes_network.client[17] 	hdistance[17].real 	2.0487725040917
scalar barabasi_100nodes_network.client[17] 	downloads[17].real 	3055
scalar barabasi_100nodes_network.client[17] 	avg_time[17].real 	0
scalar barabasi_100nodes_network.client[18] 	hdistance[18].real 	1.8077174623937
scalar barabasi_100nodes_network.client[18] 	downloads[18].real 	3058
scalar barabasi_100nodes_network.client[18] 	avg_time[18].real 	0
scalar barabasi_100nodes_network.client[19] 	hdistance[19].real 	2.2569778633301
scalar barabasi_100nodes_network.client[19] 	downloads[19].real 	3117
scalar barabasi_100nodes_network.client[19] 	avg_time[19].real 	0
scalar barabasi_100nodes_network.client[20] 	hdistance[20].real 	2.3084593116758
scalar barabasi_100nodes_network.client[20] 	downloads[20].real 	3109
scalar barabasi_100nodes_network.client[20] 	avg_time[20].real 	0
scalar barabasi_100nodes_network.client[21] 	hdistance[21].real 	1.9983327775925
scalar barabasi_100nodes_network.client[21] 	downloads[21].real 	2999
scalar barabasi_100nodes_network.client[21] 	avg_time[21].real 	0
scalar barabasi_100nodes_network.client[22] 	hdistance[22].real 	2.1261589403973
scalar barabasi_100nodes_network.client[22] 	downloads[22].real 	3020
scalar barabasi_100nodes_network.client[22] 	avg_time[22].real 	0
scalar barabasi_100nodes_network.client[23] 	hdistance[23].real 	1.6847972972973
scalar barabasi_100nodes_network.client[23] 	downloads[23].real 	2960
scalar barabasi_100nodes_network.client[23] 	avg_time[23].real 	0
scalar barabasi_100nodes_network.client[24] 	hdistance[24].real 	2.6441305079045
scalar barabasi_100nodes_network.client[24] 	downloads[24].real 	2973
scalar barabasi_100nodes_network.client[24] 	avg_time[24].real 	0
scalar barabasi_100nodes_network.client[25] 	hdistance[25].real 	1.8353558543785
scalar barabasi_100nodes_network.client[25] 	downloads[25].real 	3049
scalar barabasi_100nodes_network.client[25] 	avg_time[25].real 	0
scalar barabasi_100nodes_network.client[26] 	hdistance[26].real 	1.7267479153303
scalar barabasi_100nodes_network.client[26] 	downloads[26].real 	3118
scalar barabasi_100nodes_network.client[26] 	avg_time[26].real 	0
scalar barabasi_100nodes_network.client[27] 	hdistance[27].real 	2.3474209650582
scalar barabasi_100nodes_network.client[27] 	downloads[27].real 	3005
scalar barabasi_100nodes_network.client[27] 	avg_time[27].real 	0
scalar barabasi_100nodes_network.client[28] 	hdistance[28].real 	2.2058631921824
scalar barabasi_100nodes_network.client[28] 	downloads[28].real 	3070
scalar barabasi_100nodes_network.client[28] 	avg_time[28].real 	0
scalar barabasi_100nodes_network.client[29] 	hdistance[29].real 	2.014854827819
scalar barabasi_100nodes_network.client[29] 	downloads[29].real 	2962
scalar barabasi_100nodes_network.client[29] 	avg_time[29].real 	0
scalar barabasi_100nodes_network.client[30] 	hdistance[30].real 	2.3179061602298
scalar barabasi_100nodes_network.client[30] 	downloads[30].real 	3133
scalar barabasi_100nodes_network.client[30] 	avg_time[30].real 	0
scalar barabasi_100nodes_network.client[31] 	hdistance[31].real 	1.805874409183
scalar barabasi_100nodes_network.client[31] 	downloads[31].real 	2962
scalar barabasi_100nodes_network.client[31] 	avg_time[31].real 	0
scalar barabasi_100nodes_network.client[32] 	hdistance[32].real 	1.8348775645268
scalar barabasi_100nodes_network.client[32] 	downloads[32].real 	3022
scalar barabasi_100nodes_network.client[32] 	avg_time[32].real 	0
scalar barabasi_100nodes_network.client[33] 	hdistance[33].real 	1.9443365695793
scalar barabasi_100nodes_network.client[33] 	downloads[33].real 	3090
scalar barabasi_100nodes_network.client[33] 	avg_time[33].real 	0
scalar barabasi_100nodes_network.client[34] 	hdistance[34].real 	2.0109395109395
scalar barabasi_100nodes_network.client[34] 	downloads[34].real 	3108
scalar barabasi_100nodes_network.client[34] 	avg_time[34].real 	0
scalar barabasi_100nodes_network.client[35] 	hdistance[35].real 	2.535538814281
scalar barabasi_100nodes_network.client[35] 	downloads[35].real 	3053
scalar barabasi_100nodes_network.client[35] 	avg_time[35].real 	0
scalar barabasi_100nodes_network.client[36] 	hdistance[36].real 	1.8747461069736
scalar barabasi_100nodes_network.client[36] 	downloads[36].real 	2954
scalar barabasi_100nodes_network.client[36] 	avg_time[36].real 	0
scalar barabasi_100nodes_network.client[37] 	hdistance[37].real 	2.0910878112713
scalar barabasi_100nodes_network.client[37] 	downloads[37].real 	3052
scalar barabasi_100nodes_network.client[37] 	avg_time[37].real 	0
scalar barabasi_100nodes_network.client[38] 	hdistance[38].real 	2.3954485488127
scalar barabasi_100nodes_network.client[38] 	downloads[38].real 	3032
scalar barabasi_100nodes_network.client[38] 	avg_time[38].real 	0
scalar barabasi_100nodes_network.client[39] 	hdistance[39].real 	2.2805280528053
scalar barabasi_100nodes_network.client[39] 	downloads[39].real 	3030
scalar barabasi_100nodes_network.client[39] 	avg_time[39].real 	0
scalar barabasi_100nodes_network.client[40] 	hdistance[40].real 	2.2113144758735
scalar barabasi_100nodes_network.client[40] 	downloads[40].real 	3005
scalar barabasi_100nodes_network.client[40] 	avg_time[40].real 	0
scalar barabasi_100nodes_network.client[41] 	hdistance[41].real 	1.5689943200802
scalar barabasi_100nodes_network.client[41] 	downloads[41].real 	2993
scalar barabasi_100nodes_network.client[41] 	avg_time[41].real 	0
scalar barabasi_100nodes_network.client[42] 	hdistance[42].real 	2.0291013751199
scalar barabasi_100nodes_network.client[42] 	downloads[42].real 	3127
scalar barabasi_100nodes_network.client[42] 	avg_time[42].real 	0
scalar barabasi_100nodes_network.client[43] 	hdistance[43].real 	2.4082227258012
scalar barabasi_100nodes_network.client[43] 	downloads[43].real 	3089
scalar barabasi_100nodes_network.client[43] 	avg_time[43].real 	0
scalar barabasi_100nodes_network.client[44] 	hdistance[44].real 	2.1213640922768
scalar barabasi_100nodes_network.client[44] 	downloads[44].real 	2991
scalar barabasi_100nodes_network.client[44] 	avg_time[44].real 	0
scalar barabasi_100nodes_network.client[45] 	hdistance[45].real 	1.9710544452102
scalar barabasi_100nodes_network.client[45] 	downloads[45].real 	2902
scalar barabasi_100nodes_network.client[45] 	avg_time[45].real 	0
scalar barabasi_100nodes_network.client[46] 	hdistance[46].real 	2.0853451207072
scalar barabasi_100nodes_network.client[46] 	downloads[46].real 	2941
scalar barabasi_100nodes_network.client[46] 	avg_time[46].real 	0
scalar barabasi_100nodes_network.client[47] 	hdistance[47].real 	1.6816340310601
scalar barabasi_100nodes_network.client[47] 	downloads[47].real 	2962
scalar barabasi_100nodes_network.client[47] 	avg_time[47].real 	0
scalar barabasi_100nodes_network.client[48] 	hdistance[48].real 	1.9559310801856
scalar barabasi_100nodes_network.client[48] 	downloads[48].real 	3018
scalar barabasi_100nodes_network.client[48] 	avg_time[48].real 	0
scalar barabasi_100nodes_network.client[49] 	hdistance[49].real 	1.9266666666667
scalar barabasi_100nodes_network.client[49] 	downloads[49].real 	3000
scalar barabasi_100nodes_network.client[49] 	avg_time[49].real 	0
scalar barabasi_100nodes_network.client[50] 	hdistance[50].real 	3.2854264607119
scalar barabasi_100nodes_network.client[50] 	downloads[50].real 	2978
scalar barabasi_100nodes_network.client[50] 	avg_time[50].real 	0
scalar barabasi_100nodes_network.client[51] 	hdistance[51].real 	2.1763893683121
scalar barabasi_100nodes_network.client[51] 	downloads[51].real 	2897
scalar barabasi_100nodes_network.client[51] 	avg_time[51].real 	0
scalar barabasi_100nodes_network.client[52] 	hdistance[52].real 	2.5062417871222
scalar barabasi_100nodes_network.client[52] 	downloads[52].real 	3044
scalar barabasi_100nodes_network.client[52] 	avg_time[52].real 	0
scalar barabasi_100nodes_network.client[53] 	hdistance[53].real 	2.4381358713489
scalar barabasi_100nodes_network.client[53] 	downloads[53].real 	3047
scalar barabasi_100nodes_network.client[53] 	avg_time[53].real 	0
scalar barabasi_100nodes_network.client[54] 	hdistance[54].real 	1.8777815816501
scalar barabasi_100nodes_network.client[54] 	downloads[54].real 	2921
scalar barabasi_100nodes_network.client[54] 	avg_time[54].real 	0
scalar barabasi_100nodes_network.client[55] 	hdistance[55].real 	1.8909936856098
scalar barabasi_100nodes_network.client[55] 	downloads[55].real 	3009
scalar barabasi_100nodes_network.client[55] 	avg_time[55].real 	0
scalar barabasi_100nodes_network.client[56] 	hdistance[56].real 	2.1616666666667
scalar barabasi_100nodes_network.client[56] 	downloads[56].real 	3000
scalar barabasi_100nodes_network.client[56] 	avg_time[56].real 	0
scalar barabasi_100nodes_network.client[57] 	hdistance[57].real 	2.6554121151936
scalar barabasi_100nodes_network.client[57] 	downloads[57].real 	3021
scalar barabasi_100nodes_network.client[57] 	avg_time[57].real 	0
scalar barabasi_100nodes_network.client[58] 	hdistance[58].real 	2.0879947661106
scalar barabasi_100nodes_network.client[58] 	downloads[58].real 	3057
scalar barabasi_100nodes_network.client[58] 	avg_time[58].real 	0
scalar barabasi_100nodes_network.client[59] 	hdistance[59].real 	1.9655060201757
scalar barabasi_100nodes_network.client[59] 	downloads[59].real 	3073
scalar barabasi_100nodes_network.client[59] 	avg_time[59].real 	0
scalar barabasi_100nodes_network.client[60] 	hdistance[60].real 	2.9455559199738
scalar barabasi_100nodes_network.client[60] 	downloads[60].real 	3049
scalar barabasi_100nodes_network.client[60] 	avg_time[60].real 	0
scalar barabasi_100nodes_network.client[61] 	hdistance[61].real 	2.3414161008729
scalar barabasi_100nodes_network.client[61] 	downloads[61].real 	3093
scalar barabasi_100nodes_network.client[61] 	avg_time[61].real 	0
scalar barabasi_100nodes_network.client[62] 	hdistance[62].real 	1.8518274613105
scalar barabasi_100nodes_network.client[62] 	downloads[62].real 	3037
scalar barabasi_100nodes_network.client[62] 	avg_time[62].real 	0
scalar barabasi_100nodes_network.client[63] 	hdistance[63].real 	2.8026666666667
scalar barabasi_100nodes_network.client[63] 	downloads[63].real 	3000
scalar barabasi_100nodes_network.client[63] 	avg_time[63].real 	0
scalar barabasi_100nodes_network.client[64] 	hdistance[64].real 	2.4361158432709
scalar barabasi_100nodes_network.client[64] 	downloads[64].real 	2935
scalar barabasi_100nodes_network.client[64] 	avg_time[64].real 	0
scalar barabasi_100nodes_network.client[65] 	hdistance[65].real 	2.2971993410214
scalar barabasi_100nodes_network.client[65] 	downloads[65].real 	3035
scalar barabasi_100nodes_network.client[65] 	avg_time[65].real 	0
scalar barabasi_100nodes_network.client[66] 	hdistance[66].real 	2.3386675375571
scalar barabasi_100nodes_network.client[66] 	downloads[66].real 	3062
scalar barabasi_100nodes_network.client[66] 	avg_time[66].real 	0
scalar barabasi_100nodes_network.client[67] 	hdistance[67].real 	2.1082677165354
scalar barabasi_100nodes_network.client[67] 	downloads[67].real 	3048
scalar barabasi_100nodes_network.client[67] 	avg_time[67].real 	0
scalar barabasi_100nodes_network.client[68] 	hdistance[68].real 	2.414504324684
scalar barabasi_100nodes_network.client[68] 	downloads[68].real 	3006
scalar barabasi_100nodes_network.client[68] 	avg_time[68].real 	0
scalar barabasi_100nodes_network.client[69] 	hdistance[69].real 	1.8394557823129
scalar barabasi_100nodes_network.client[69] 	downloads[69].real 	2940
scalar barabasi_100nodes_network.client[69] 	avg_time[69].real 	0
scalar barabasi_100nodes_network.client[70] 	hdistance[70].real 	2.8537381651975
scalar barabasi_100nodes_network.client[70] 	downloads[70].real 	3063
scalar barabasi_100nodes_network.client[70] 	avg_time[70].real 	0
scalar barabasi_100nodes_network.client[71] 	hdistance[71].real 	2.2531009051291
scalar barabasi_100nodes_network.client[71] 	downloads[71].real 	2983
scalar barabasi_100nodes_network.client[71] 	avg_time[71].real 	0
scalar barabasi_100nodes_network.client[72] 	hdistance[72].real 	2.4080026238111
scalar barabasi_100nodes_network.client[72] 	downloads[72].real 	3049
scalar barabasi_100nodes_network.client[72] 	avg_time[72].real 	0
scalar barabasi_100nodes_network.client[73] 	hdistance[73].real 	2.0729854689564
scalar barabasi_100nodes_network.client[73] 	downloads[73].real 	3028
scalar barabasi_100nodes_network.client[73] 	avg_time[73].real 	0
scalar barabasi_100nodes_network.client[74] 	hdistance[74].real 	2.0989966555184
scalar barabasi_100nodes_network.client[74] 	downloads[74].real 	2990
scalar barabasi_100nodes_network.client[74] 	avg_time[74].real 	0
scalar barabasi_100nodes_network.client[75] 	hdistance[75].real 	2.5202833226014
scalar barabasi_100nodes_network.client[75] 	downloads[75].real 	3106
scalar barabasi_100nodes_network.client[75] 	avg_time[75].real 	0
scalar barabasi_100nodes_network.client[76] 	hdistance[76].real 	2.7124204887847
scalar barabasi_100nodes_network.client[76] 	downloads[76].real 	2987
scalar barabasi_100nodes_network.client[76] 	avg_time[76].real 	0
scalar barabasi_100nodes_network.client[77] 	hdistance[77].real 	2.4766478966545
scalar barabasi_100nodes_network.client[77] 	downloads[77].real 	3019
scalar barabasi_100nodes_network.client[77] 	avg_time[77].real 	0
scalar barabasi_100nodes_network.client[78] 	hdistance[78].real 	1.9828326180257
scalar barabasi_100nodes_network.client[78] 	downloads[78].real 	3029
scalar barabasi_100nodes_network.client[78] 	avg_time[78].real 	0
scalar barabasi_100nodes_network.client[79] 	hdistance[79].real 	1.9151612903226
scalar barabasi_100nodes_network.client[79] 	downloads[79].real 	3100
scalar barabasi_100nodes_network.client[79] 	avg_time[79].real 	0
scalar barabasi_100nodes_network.client[80] 	hdistance[80].real 	2.8320337881741
scalar barabasi_100nodes_network.client[80] 	downloads[80].real 	3078
scalar barabasi_100nodes_network.client[80] 	avg_time[80].real 	0
scalar barabasi_100nodes_network.client[81] 	hdistance[81].real 	2.0497113534317
scalar barabasi_100nodes_network.client[81] 	downloads[81].real 	3118
scalar barabasi_100nodes_network.client[81] 	avg_time[81].real 	0
scalar barabasi_100nodes_network.client[82] 	hdistance[82].real 	2.5873121869783
scalar barabasi_100nodes_network.client[82] 	downloads[82].real 	2995
scalar barabasi_100nodes_network.client[82] 	avg_time[82].real 	0
scalar barabasi_100nodes_network.client[83] 	hdistance[83].real 	2.145251396648
scalar barabasi_100nodes_network.client[83] 	downloads[83].real 	3043
scalar barabasi_100nodes_network.client[83] 	avg_time[83].real 	0
scalar barabasi_100nodes_network.client[84] 	hdistance[84].real 	2.4380487804878
scalar barabasi_100nodes_network.client[84] 	downloads[84].real 	3075
scalar barabasi_100nodes_network.client[84] 	avg_time[84].real 	0
scalar barabasi_100nodes_network.client[85] 	hdistance[85].real 	2.2642762284197
scalar barabasi_100nodes_network.client[85] 	downloads[85].real 	3012
scalar barabasi_100nodes_network.client[85] 	avg_time[85].real 	0
scalar barabasi_100nodes_network.client[86] 	hdistance[86].real 	2.1851728723404
scalar barabasi_100nodes_network.client[86] 	downloads[86].real 	3008
scalar barabasi_100nodes_network.client[86] 	avg_time[86].real 	0
scalar barabasi_100nodes_network.client[87] 	hdistance[87].real 	2.5689540306462
scalar barabasi_100nodes_network.client[87] 	downloads[87].real 	3002
scalar barabasi_100nodes_network.client[87] 	avg_time[87].real 	0
scalar barabasi_100nodes_network.client[88] 	hdistance[88].real 	2.9763001974984
scalar barabasi_100nodes_network.client[88] 	downloads[88].real 	3038
scalar barabasi_100nodes_network.client[88] 	avg_time[88].real 	0
scalar barabasi_100nodes_network.client[89] 	hdistance[89].real 	2.4200680272109
scalar barabasi_100nodes_network.client[89] 	downloads[89].real 	2940
scalar barabasi_100nodes_network.client[89] 	avg_time[89].real 	0
scalar barabasi_100nodes_network.client[90] 	hdistance[90].real 	1.8443017656501
scalar barabasi_100nodes_network.client[90] 	downloads[90].real 	3115
scalar barabasi_100nodes_network.client[90] 	avg_time[90].real 	0
scalar barabasi_100nodes_network.client[91] 	hdistance[91].real 	2.418029933867
scalar barabasi_100nodes_network.client[91] 	downloads[91].real 	2873
scalar barabasi_100nodes_network.client[91] 	avg_time[91].real 	0
scalar barabasi_100nodes_network.client[92] 	hdistance[92].real 	3.1188152137327
scalar barabasi_100nodes_network.client[92] 	downloads[92].real 	2971
scalar barabasi_100nodes_network.client[92] 	avg_time[92].real 	0
scalar barabasi_100nodes_network.client[93] 	hdistance[93].real 	2.1716094635122
scalar barabasi_100nodes_network.client[93] 	downloads[93].real 	3001
scalar barabasi_100nodes_network.client[93] 	avg_time[93].real 	0
scalar barabasi_100nodes_network.client[94] 	hdistance[94].real 	2.7080052493438
scalar barabasi_100nodes_network.client[94] 	downloads[94].real 	3048
scalar barabasi_100nodes_network.client[94] 	avg_time[94].real 	0
scalar barabasi_100nodes_network.client[95] 	hdistance[95].real 	2.4065898912348
scalar barabasi_100nodes_network.client[95] 	downloads[95].real 	3126
scalar barabasi_100nodes_network.client[95] 	avg_time[95].real 	0
scalar barabasi_100nodes_network.client[96] 	hdistance[96].real 	2.9161575016972
scalar barabasi_100nodes_network.client[96] 	downloads[96].real 	2946
scalar barabasi_100nodes_network.client[96] 	avg_time[96].real 	0
scalar barabasi_100nodes_network.client[97] 	hdistance[97].real 	2.5025658569962
scalar barabasi_100nodes_network.client[97] 	downloads[97].real 	2923
scalar barabasi_100nodes_network.client[97] 	avg_time[97].real 	0
scalar barabasi_100nodes_network.client[98] 	hdistance[98].real 	2.9170829170829
scalar barabasi_100nodes_network.client[98] 	downloads[98].real 	3003
scalar barabasi_100nodes_network.client[98] 	avg_time[98].real 	0
scalar barabasi_100nodes_network.client[99] 	hdistance[99].real 	2.9311023622047
scalar barabasi_100nodes_network.client[99] 	downloads[99].real 	3048
scalar barabasi_100nodes_network.client[99] 	avg_time[99].real 	0
