version 2
run General-36-20140513-15:51:14-2036
attr D fix0.01
attr F nrr
attr R lru
attr a 0.8
attr configname General
attr csize 1e4
attr ctlg 1e6
attr datetime 20140513-15:51:14
attr experiment General
attr inifile omnetpp.ini
attr iterationvars "$net=one_cache_scenario_3_links, $rep=7, $priceratiovalue=100, $weights=0.333_0.333_0.334, $a=0.8, $ctlg=1e6, $F=nrr, $ttl=1000, $D=fix0.01, $xi=1, $R=lru, $csize=1e4"
attr iterationvars2 "$net=one_cache_scenario_3_links, $rep=7, $priceratiovalue=100, $weights=0.333_0.333_0.334, $a=0.8, $ctlg=1e6, $F=nrr, $ttl=1000, $D=fix0.01, $xi=1, $R=lru, $csize=1e4, $repetition=0"
attr measurement "$net=one_cache_scenario_3_links, $rep=7, $priceratiovalue=100, $weights=0.333_0.333_0.334, $a=0.8, $ctlg=1e6, $F=nrr, $ttl=1000, $D=fix0.01, $xi=1, $R=lru, $csize=1e4"
attr net one_cache_scenario_3_links
attr network networks.${net=one_cache_scenario_3_links}_network
attr priceratiovalue 100
attr processid 2036
attr rep 7
attr repetition 0
attr replication #0
attr resultdir results
attr runnumber 36
attr seedset 7
attr ttl 1000
attr weights 0.333_0.333_0.334
attr xi 1

scalar . 	a 	0.8
scalar . 	csize 	1e4
scalar . 	ctlg 	1e6
scalar . 	priceratiovalue 	100
scalar . 	rep 	7
scalar . 	ttl 	1000
scalar . 	xi 	1
scalar one_cache_scenario_3_links_network.content_distribution 	repo-0 	4
scalar one_cache_scenario_3_links_network.content_distribution 	repo-1 	5
scalar one_cache_scenario_3_links_network.content_distribution 	repo-2 	6
scalar one_cache_scenario_3_links_network.content_distribution 	client-0 	0
scalar one_cache_scenario_3_links_network.content_distribution 	repo-0_card 	332130
scalar one_cache_scenario_3_links_network.content_distribution 	repo-1_card 	333414
scalar one_cache_scenario_3_links_network.content_distribution 	repo-2_card 	334456
scalar one_cache_scenario_3_links_network.statistics 	p_hit 	0.044203578456803
scalar one_cache_scenario_3_links_network.statistics 	interests 	179814.14285714
scalar one_cache_scenario_3_links_network.statistics 	data 	114577.14285714
scalar one_cache_scenario_3_links_network.statistics 	hdistance 	1.7563214564916
scalar one_cache_scenario_3_links_network.statistics 	avg_time 	0
scalar one_cache_scenario_3_links_network.statistics 	downloads 	456659
scalar one_cache_scenario_3_links_network.statistics 	total_cost 	13546769
scalar one_cache_scenario_3_links_network.statistics 	total_replicas 	1000000
scalar one_cache_scenario_3_links_network.statistics 	interests_sent 	456659
scalar one_cache_scenario_3_links_network.node[0].core_layer 	interests[0] 	456659
scalar one_cache_scenario_3_links_network.node[0].core_layer 	data[0] 	401020
scalar one_cache_scenario_3_links_network.node[0].core_layer 	repo_int[0] 	401020
scalar one_cache_scenario_3_links_network.node[0].content_store 	p_hit[0] 	0.1218392717542
scalar one_cache_scenario_3_links_network.node[0].content_store 	hits[0] 	55639
scalar one_cache_scenario_3_links_network.node[0].content_store 	misses[0] 	401020
scalar one_cache_scenario_3_links_network.node[0].content_store 	decision_yes[0] 	4014
scalar one_cache_scenario_3_links_network.node[0].content_store 	decision_no[0] 	397006
scalar one_cache_scenario_3_links_network.node[0].content_store 	decision_ratio[0] 	0.010009475836617
scalar one_cache_scenario_3_links_network.node[1].core_layer 	interests[1] 	133715
scalar one_cache_scenario_3_links_network.node[1].core_layer 	data[1] 	133715
scalar one_cache_scenario_3_links_network.node[1].content_store 	p_hit[1] 	0
scalar one_cache_scenario_3_links_network.node[1].content_store 	hits[1] 	0
scalar one_cache_scenario_3_links_network.node[1].content_store 	misses[1] 	133715
scalar one_cache_scenario_3_links_network.node[1].content_store 	decision_yes[1] 	0
scalar one_cache_scenario_3_links_network.node[1].content_store 	decision_no[1] 	133715
scalar one_cache_scenario_3_links_network.node[1].content_store 	decision_ratio[1] 	0
scalar one_cache_scenario_3_links_network.node[2].core_layer 	interests[2] 	133169
scalar one_cache_scenario_3_links_network.node[2].core_layer 	data[2] 	133169
scalar one_cache_scenario_3_links_network.node[2].content_store 	p_hit[2] 	0
scalar one_cache_scenario_3_links_network.node[2].content_store 	hits[2] 	0
scalar one_cache_scenario_3_links_network.node[2].content_store 	misses[2] 	133169
scalar one_cache_scenario_3_links_network.node[2].content_store 	decision_yes[2] 	0
scalar one_cache_scenario_3_links_network.node[2].content_store 	decision_no[2] 	133169
scalar one_cache_scenario_3_links_network.node[2].content_store 	decision_ratio[2] 	0
scalar one_cache_scenario_3_links_network.node[3].core_layer 	interests[3] 	134136
scalar one_cache_scenario_3_links_network.node[3].core_layer 	data[3] 	134136
scalar one_cache_scenario_3_links_network.node[3].content_store 	p_hit[3] 	0
scalar one_cache_scenario_3_links_network.node[3].content_store 	hits[3] 	0
scalar one_cache_scenario_3_links_network.node[3].content_store 	misses[3] 	134136
scalar one_cache_scenario_3_links_network.node[3].content_store 	decision_yes[3] 	0
scalar one_cache_scenario_3_links_network.node[3].content_store 	decision_no[3] 	134136
scalar one_cache_scenario_3_links_network.node[3].content_store 	decision_ratio[3] 	0
scalar one_cache_scenario_3_links_network.node[4].core_layer 	interests[4] 	133715
scalar one_cache_scenario_3_links_network.node[4].core_layer 	repo_load[4] 	133715
scalar one_cache_scenario_3_links_network.node[4].core_layer 	data[4] 	0
scalar one_cache_scenario_3_links_network.node[4].content_store 	p_hit[4] 	0
scalar one_cache_scenario_3_links_network.node[4].content_store 	hits[4] 	0
scalar one_cache_scenario_3_links_network.node[4].content_store 	misses[4] 	133715
scalar one_cache_scenario_3_links_network.node[4].content_store 	decision_yes[4] 	0
scalar one_cache_scenario_3_links_network.node[4].content_store 	decision_no[4] 	133715
scalar one_cache_scenario_3_links_network.node[4].content_store 	decision_ratio[4] 	0
scalar one_cache_scenario_3_links_network.node[5].core_layer 	interests[5] 	133169
scalar one_cache_scenario_3_links_network.node[5].core_layer 	repo_load[5] 	133169
scalar one_cache_scenario_3_links_network.node[5].core_layer 	data[5] 	0
scalar one_cache_scenario_3_links_network.node[5].content_store 	p_hit[5] 	0
scalar one_cache_scenario_3_links_network.node[5].content_store 	hits[5] 	0
scalar one_cache_scenario_3_links_network.node[5].content_store 	misses[5] 	133169
scalar one_cache_scenario_3_links_network.node[5].content_store 	decision_yes[5] 	0
scalar one_cache_scenario_3_links_network.node[5].content_store 	decision_no[5] 	133169
scalar one_cache_scenario_3_links_network.node[5].content_store 	decision_ratio[5] 	0
scalar one_cache_scenario_3_links_network.node[6].core_layer 	interests[6] 	134136
scalar one_cache_scenario_3_links_network.node[6].core_layer 	repo_load[6] 	134136
scalar one_cache_scenario_3_links_network.node[6].core_layer 	data[6] 	0
scalar one_cache_scenario_3_links_network.node[6].content_store 	p_hit[6] 	0
scalar one_cache_scenario_3_links_network.node[6].content_store 	hits[6] 	0
scalar one_cache_scenario_3_links_network.node[6].content_store 	misses[6] 	134136
scalar one_cache_scenario_3_links_network.node[6].content_store 	decision_yes[6] 	0
scalar one_cache_scenario_3_links_network.node[6].content_store 	decision_no[6] 	134136
scalar one_cache_scenario_3_links_network.node[6].content_store 	decision_ratio[6] 	0
scalar one_cache_scenario_3_links_network.client[0] 	hdistance[0] 	1.7563214564916
scalar one_cache_scenario_3_links_network.client[0] 	downloads[0] 	456659
scalar one_cache_scenario_3_links_network.client[0] 	avg_time[0] 	0
scalar one_cache_scenario_3_links_network.client[0] 	interests_sent[0] 	456659
