version 2
run General-5-20150612-17:43:11-32356
attr D never
attr F spr
attr R lru
attr a 1
attr configname General
attr datetime 20150612-17:43:11
attr experiment General
attr inifile omnetpp.ini
attr iterationvars "$net=abilene, $rep=0, $a=1, $F=spr, $ttl=1000, $D=never, $R=lru, $window=60, $variance=0.05, $mytime=1800"
attr iterationvars2 "$net=abilene, $rep=0, $a=1, $F=spr, $ttl=1000, $D=never, $R=lru, $window=60, $variance=0.05, $mytime=1800, $repetition=0"
attr measurement "$net=abilene, $rep=0, $a=1, $F=spr, $ttl=1000, $D=never, $R=lru, $window=60, $variance=0.05, $mytime=1800"
attr mytime 1800
attr net abilene
attr network networks.${net=abilene}_network
attr processid 32356
attr rep 0
attr repetition 0
attr replication #0
attr resultdir results
attr runnumber 5
attr seedset 0
attr ttl 1000
attr variance 0.05
attr window 60

scalar . 	a 	1
scalar . 	mytime 	1800
scalar . 	rep 	0
scalar . 	ttl 	1000
scalar . 	variance 	0.05
scalar . 	window 	60
scalar abilene_network.content_distribution 	repo-0 	5
scalar abilene_network.content_distribution 	client-0 	8
scalar abilene_network.content_distribution 	client-1 	9
scalar abilene_network.content_distribution 	client-2 	5
scalar abilene_network.content_distribution 	client-3 	0
scalar abilene_network.content_distribution 	client-4 	1
scalar abilene_network.content_distribution 	client-5 	7
scalar abilene_network.content_distribution 	client-6 	6
scalar abilene_network.content_distribution 	client-7 	2
scalar abilene_network.content_distribution 	client-8 	4
scalar abilene_network.content_distribution 	client-9 	10
scalar abilene_network.content_distribution 	client-10 	3
scalar abilene_network.content_distribution 	repo-0_card 	10000
scalar abilene_network.content_distribution 	repo-0_price 	0
scalar abilene_network.statistics 	stabilization_time 	60.1
scalar abilene_network.statistics 	p_hit 	0
scalar abilene_network.statistics 	interests 	637183.90909091
scalar abilene_network.statistics 	data 	457071.90909091
scalar abilene_network.statistics 	hdistance 	3.7272727272727
scalar abilene_network.statistics 	avg_time 	0.014841379321
scalar abilene_network.statistics 	downloads 	1939255
scalar abilene_network.statistics 	total_cost 	0
scalar abilene_network.statistics 	total_replicas 	10000
scalar abilene_network.statistics 	inner_hit 	0.043683270121774
scalar abilene_network.statistics 	interests_sent 	1981233
scalar abilene_network.node[0].core_layer 	interests[0] 	180274
scalar abilene_network.node[0].core_layer 	data[0] 	173088
scalar abilene_network.node[0].core_layer 	megabytes_sent[face$o[0]->client[0]] 	0
scalar abilene_network.node[0].core_layer 	megabytes_sent[face$o[1]->node[1]] 	0
scalar abilene_network.node[0].core_layer 	megabytes_sent[face$o[2]->node[10]] 	0
scalar abilene_network.node[0].content_store 	p_hit[0] 	0
scalar abilene_network.node[0].content_store 	hits[0] 	0
scalar abilene_network.node[0].content_store 	misses[0] 	180274
scalar abilene_network.node[0].content_store 	decision_yes[0] 	0
scalar abilene_network.node[0].content_store 	decision_no[0] 	173088
scalar abilene_network.node[0].content_store 	decision_ratio[0] 	0
scalar abilene_network.node[1].core_layer 	interests[1] 	525969
scalar abilene_network.node[1].core_layer 	data[1] 	498196
scalar abilene_network.node[1].core_layer 	megabytes_sent[face$o[0]->client[1]] 	0
scalar abilene_network.node[1].core_layer 	megabytes_sent[face$o[1]->node[0]] 	0
scalar abilene_network.node[1].core_layer 	megabytes_sent[face$o[2]->node[10]] 	0
scalar abilene_network.node[1].core_layer 	megabytes_sent[face$o[3]->node[2]] 	0
scalar abilene_network.node[1].content_store 	p_hit[1] 	0
scalar abilene_network.node[1].content_store 	hits[1] 	0
scalar abilene_network.node[1].content_store 	misses[1] 	525969
scalar abilene_network.node[1].content_store 	decision_yes[1] 	0
scalar abilene_network.node[1].content_store 	decision_no[1] 	498196
scalar abilene_network.node[1].content_store 	decision_ratio[1] 	0
scalar abilene_network.node[2].core_layer 	interests[2] 	678544
scalar abilene_network.node[2].core_layer 	data[2] 	659320
scalar abilene_network.node[2].core_layer 	megabytes_sent[face$o[0]->client[2]] 	0
scalar abilene_network.node[2].core_layer 	megabytes_sent[face$o[1]->node[1]] 	0
scalar abilene_network.node[2].core_layer 	megabytes_sent[face$o[2]->node[3]] 	0
scalar abilene_network.node[2].core_layer 	megabytes_sent[face$o[3]->node[8]] 	0
scalar abilene_network.node[2].content_store 	p_hit[2] 	0
scalar abilene_network.node[2].content_store 	hits[2] 	0
scalar abilene_network.node[2].content_store 	misses[2] 	678544
scalar abilene_network.node[2].content_store 	decision_yes[2] 	0
scalar abilene_network.node[2].content_store 	decision_no[2] 	659320
scalar abilene_network.node[2].content_store 	decision_ratio[2] 	0
scalar abilene_network.node[3].core_layer 	interests[3] 	839691
scalar abilene_network.node[3].core_layer 	data[3] 	823016
scalar abilene_network.node[3].core_layer 	megabytes_sent[face$o[0]->client[3]] 	0
scalar abilene_network.node[3].core_layer 	megabytes_sent[face$o[1]->node[2]] 	0
scalar abilene_network.node[3].core_layer 	megabytes_sent[face$o[2]->node[4]] 	0
scalar abilene_network.node[3].core_layer 	megabytes_sent[face$o[3]->node[7]] 	0
scalar abilene_network.node[3].content_store 	p_hit[3] 	0
scalar abilene_network.node[3].content_store 	hits[3] 	0
scalar abilene_network.node[3].content_store 	misses[3] 	839691
scalar abilene_network.node[3].content_store 	decision_yes[3] 	0
scalar abilene_network.node[3].content_store 	decision_no[3] 	823016
scalar abilene_network.node[3].content_store 	decision_ratio[3] 	0
scalar abilene_network.node[4].core_layer 	interests[4] 	1003755
scalar abilene_network.node[4].core_layer 	data[4] 	987003
scalar abilene_network.node[4].core_layer 	megabytes_sent[face$o[0]->client[4]] 	0
scalar abilene_network.node[4].core_layer 	megabytes_sent[face$o[1]->node[3]] 	0
scalar abilene_network.node[4].core_layer 	megabytes_sent[face$o[2]->node[5]] 	0
scalar abilene_network.node[4].content_store 	p_hit[4] 	0
scalar abilene_network.node[4].content_store 	hits[4] 	0
scalar abilene_network.node[4].content_store 	misses[4] 	1003755
scalar abilene_network.node[4].content_store 	decision_yes[4] 	0
scalar abilene_network.node[4].content_store 	decision_no[4] 	987003
scalar abilene_network.node[4].content_store 	decision_ratio[4] 	0
scalar abilene_network.node[5].core_layer 	interests[5] 	1854542
scalar abilene_network.node[5].core_layer 	repo_load[5] 	1854542
scalar abilene_network.node[5].core_layer 	data[5] 	0
scalar abilene_network.node[5].core_layer 	megabytes_sent[face$o[0]->client[5]] 	0
scalar abilene_network.node[5].core_layer 	megabytes_sent[face$o[1]->node[4]] 	0
scalar abilene_network.node[5].core_layer 	megabytes_sent[face$o[2]->node[6]] 	0
scalar abilene_network.node[5].content_store 	p_hit[5] 	0
scalar abilene_network.node[5].content_store 	hits[5] 	0
scalar abilene_network.node[5].content_store 	misses[5] 	1854542
scalar abilene_network.node[5].content_store 	decision_yes[5] 	0
scalar abilene_network.node[5].content_store 	decision_no[5] 	1854542
scalar abilene_network.node[5].content_store 	decision_ratio[5] 	0
scalar abilene_network.node[6].core_layer 	interests[6] 	691918
scalar abilene_network.node[6].core_layer 	data[6] 	688154
scalar abilene_network.node[6].core_layer 	megabytes_sent[face$o[0]->client[6]] 	0
scalar abilene_network.node[6].core_layer 	megabytes_sent[face$o[1]->node[5]] 	0
scalar abilene_network.node[6].core_layer 	megabytes_sent[face$o[2]->node[7]] 	0
scalar abilene_network.node[6].content_store 	p_hit[6] 	0
scalar abilene_network.node[6].content_store 	hits[6] 	0
scalar abilene_network.node[6].content_store 	misses[6] 	691918
scalar abilene_network.node[6].content_store 	decision_yes[6] 	0
scalar abilene_network.node[6].content_store 	decision_no[6] 	688154
scalar abilene_network.node[6].content_store 	decision_ratio[6] 	0
scalar abilene_network.node[7].core_layer 	interests[7] 	521238
scalar abilene_network.node[7].core_layer 	data[7] 	511708
scalar abilene_network.node[7].core_layer 	megabytes_sent[face$o[0]->client[7]] 	0
scalar abilene_network.node[7].core_layer 	megabytes_sent[face$o[1]->node[3]] 	0
scalar abilene_network.node[7].core_layer 	megabytes_sent[face$o[2]->node[6]] 	0
scalar abilene_network.node[7].core_layer 	megabytes_sent[face$o[3]->node[8]] 	0
scalar abilene_network.node[7].content_store 	p_hit[7] 	0
scalar abilene_network.node[7].content_store 	hits[7] 	0
scalar abilene_network.node[7].content_store 	misses[7] 	521238
scalar abilene_network.node[7].content_store 	decision_yes[7] 	0
scalar abilene_network.node[7].content_store 	decision_no[7] 	511708
scalar abilene_network.node[7].content_store 	decision_ratio[7] 	0
scalar abilene_network.node[8].core_layer 	interests[8] 	352882
scalar abilene_network.node[8].core_layer 	data[8] 	341693
scalar abilene_network.node[8].core_layer 	megabytes_sent[face$o[0]->client[8]] 	0
scalar abilene_network.node[8].core_layer 	megabytes_sent[face$o[1]->node[2]] 	0
scalar abilene_network.node[8].core_layer 	megabytes_sent[face$o[2]->node[7]] 	0
scalar abilene_network.node[8].core_layer 	megabytes_sent[face$o[3]->node[9]] 	0
scalar abilene_network.node[8].content_store 	p_hit[8] 	0
scalar abilene_network.node[8].content_store 	hits[8] 	0
scalar abilene_network.node[8].content_store 	misses[8] 	352882
scalar abilene_network.node[8].content_store 	decision_yes[8] 	0
scalar abilene_network.node[8].content_store 	decision_no[8] 	341693
scalar abilene_network.node[8].content_store 	decision_ratio[8] 	0
scalar abilene_network.node[9].core_layer 	interests[9] 	180394
scalar abilene_network.node[9].core_layer 	data[9] 	172875
scalar abilene_network.node[9].core_layer 	megabytes_sent[face$o[0]->client[9]] 	0
scalar abilene_network.node[9].core_layer 	megabytes_sent[face$o[1]->node[10]] 	0
scalar abilene_network.node[9].core_layer 	megabytes_sent[face$o[2]->node[8]] 	0
scalar abilene_network.node[9].content_store 	p_hit[9] 	0
scalar abilene_network.node[9].content_store 	hits[9] 	0
scalar abilene_network.node[9].content_store 	misses[9] 	180394
scalar abilene_network.node[9].content_store 	decision_yes[9] 	0
scalar abilene_network.node[9].content_store 	decision_no[9] 	172875
scalar abilene_network.node[9].content_store 	decision_ratio[9] 	0
scalar abilene_network.node[10].core_layer 	interests[10] 	179816
scalar abilene_network.node[10].core_layer 	data[10] 	172738
scalar abilene_network.node[10].core_layer 	megabytes_sent[face$o[0]->client[10]] 	0
scalar abilene_network.node[10].core_layer 	megabytes_sent[face$o[1]->node[0]] 	0
scalar abilene_network.node[10].core_layer 	megabytes_sent[face$o[2]->node[1]] 	0
scalar abilene_network.node[10].core_layer 	megabytes_sent[face$o[3]->node[9]] 	0
scalar abilene_network.node[10].content_store 	p_hit[10] 	0
scalar abilene_network.node[10].content_store 	hits[10] 	0
scalar abilene_network.node[10].content_store 	misses[10] 	179816
scalar abilene_network.node[10].content_store 	decision_yes[10] 	0
scalar abilene_network.node[10].content_store 	decision_no[10] 	172738
scalar abilene_network.node[10].content_store 	decision_ratio[10] 	0
scalar abilene_network.client[0] 	hdistance[0] 	6
scalar abilene_network.client[0] 	downloads[0] 	173088
scalar abilene_network.client[0] 	avg_time[0] 	0.029932922885
scalar abilene_network.client[0] 	interests_sent[0] 	180274
scalar abilene_network.client[1] 	hdistance[1] 	5
scalar abilene_network.client[1] 	downloads[1] 	175226
scalar abilene_network.client[1] 	avg_time[1] 	0.019332966481
scalar abilene_network.client[1] 	interests_sent[1] 	180140
scalar abilene_network.client[2] 	hdistance[2] 	4
scalar abilene_network.client[2] 	downloads[2] 	176719
scalar abilene_network.client[2] 	avg_time[2] 	0.013716597202
scalar abilene_network.client[2] 	interests_sent[2] 	180348
scalar abilene_network.client[3] 	hdistance[3] 	3
scalar abilene_network.client[3] 	downloads[3] 	177844
scalar abilene_network.client[3] 	avg_time[3] 	0.009115750479
scalar abilene_network.client[3] 	interests_sent[3] 	180373
scalar abilene_network.client[4] 	hdistance[4] 	2
scalar abilene_network.client[4] 	downloads[4] 	178651
scalar abilene_network.client[4] 	avg_time[4] 	0.007439870722
scalar abilene_network.client[4] 	interests_sent[4] 	180741
scalar abilene_network.client[5] 	hdistance[5] 	1
scalar abilene_network.client[5] 	downloads[5] 	179384
scalar abilene_network.client[5] 	avg_time[5] 	0
scalar abilene_network.client[5] 	interests_sent[5] 	179384
scalar abilene_network.client[6] 	hdistance[6] 	2
scalar abilene_network.client[6] 	downloads[6] 	179584
scalar abilene_network.client[6] 	avg_time[6] 	0.002186640978
scalar abilene_network.client[6] 	interests_sent[6] 	180210
scalar abilene_network.client[7] 	hdistance[7] 	3
scalar abilene_network.client[7] 	downloads[7] 	177260
scalar abilene_network.client[7] 	avg_time[7] 	0.007884308063
scalar abilene_network.client[7] 	interests_sent[7] 	179545
scalar abilene_network.client[8] 	hdistance[8] 	4
scalar abilene_network.client[8] 	downloads[8] 	175886
scalar abilene_network.client[8] 	avg_time[8] 	0.015180558982
scalar abilene_network.client[8] 	interests_sent[8] 	180008
scalar abilene_network.client[9] 	hdistance[9] 	5
scalar abilene_network.client[9] 	downloads[9] 	172875
scalar abilene_network.client[9] 	avg_time[9] 	0.0294288477
scalar abilene_network.client[9] 	interests_sent[9] 	180394
scalar abilene_network.client[10] 	hdistance[10] 	6
scalar abilene_network.client[10] 	downloads[10] 	172738
scalar abilene_network.client[10] 	avg_time[10] 	0.029036709042
scalar abilene_network.client[10] 	interests_sent[10] 	179816
