version 2
run General-10-20140513-15:50:40-1991
attr D fix0.01
attr F nrr
attr R lru
attr a 1.2
attr configname General
attr csize 1e2
attr ctlg 1e4
attr datetime 20140513-15:50:40
attr experiment General
attr inifile omnetpp.ini
attr iterationvars "$net=one_cache_scenario_3_links, $rep=2, $priceratiovalue=100, $weights=0.333_0.333_0.334, $a=1.2, $ctlg=1e4, $F=nrr, $ttl=1000, $D=fix0.01, $xi=1, $R=lru, $csize=1e2"
attr iterationvars2 "$net=one_cache_scenario_3_links, $rep=2, $priceratiovalue=100, $weights=0.333_0.333_0.334, $a=1.2, $ctlg=1e4, $F=nrr, $ttl=1000, $D=fix0.01, $xi=1, $R=lru, $csize=1e2, $repetition=0"
attr measurement "$net=one_cache_scenario_3_links, $rep=2, $priceratiovalue=100, $weights=0.333_0.333_0.334, $a=1.2, $ctlg=1e4, $F=nrr, $ttl=1000, $D=fix0.01, $xi=1, $R=lru, $csize=1e2"
attr net one_cache_scenario_3_links
attr network networks.${net=one_cache_scenario_3_links}_network
attr priceratiovalue 100
attr processid 1991
attr rep 2
attr repetition 0
attr replication #0
attr resultdir results
attr runnumber 10
attr seedset 2
attr ttl 1000
attr weights 0.333_0.333_0.334
attr xi 1

scalar . 	a 	1.2
scalar . 	csize 	1e2
scalar . 	ctlg 	1e4
scalar . 	priceratiovalue 	100
scalar . 	rep 	2
scalar . 	ttl 	1000
scalar . 	xi 	1
scalar one_cache_scenario_3_links_network.content_distribution 	repo-0 	4
scalar one_cache_scenario_3_links_network.content_distribution 	repo-1 	5
scalar one_cache_scenario_3_links_network.content_distribution 	repo-2 	6
scalar one_cache_scenario_3_links_network.content_distribution 	client-0 	0
scalar one_cache_scenario_3_links_network.content_distribution 	repo-0_card 	3353
scalar one_cache_scenario_3_links_network.content_distribution 	repo-1_card 	3273
scalar one_cache_scenario_3_links_network.content_distribution 	repo-2_card 	3374
scalar one_cache_scenario_3_links_network.statistics 	p_hit 	0.47024362826693
scalar one_cache_scenario_3_links_network.statistics 	interests 	39650.571428571
scalar one_cache_scenario_3_links_network.statistics 	data 	14003.428571429
scalar one_cache_scenario_3_links_network.statistics 	hdistance 	0.54600345346182
scalar one_cache_scenario_3_links_network.statistics 	avg_time 	0
scalar one_cache_scenario_3_links_network.statistics 	downloads 	179530
scalar one_cache_scenario_3_links_network.statistics 	total_cost 	1601608
scalar one_cache_scenario_3_links_network.statistics 	total_replicas 	10000
scalar one_cache_scenario_3_links_network.statistics 	interests_sent 	179530
scalar one_cache_scenario_3_links_network.node[0].core_layer 	interests[0] 	179530
scalar one_cache_scenario_3_links_network.node[0].core_layer 	data[0] 	49012
scalar one_cache_scenario_3_links_network.node[0].core_layer 	repo_int[0] 	49012
scalar one_cache_scenario_3_links_network.node[0].content_store 	p_hit[0] 	0.72699827326909
scalar one_cache_scenario_3_links_network.node[0].content_store 	hits[0] 	130518
scalar one_cache_scenario_3_links_network.node[0].content_store 	misses[0] 	49012
scalar one_cache_scenario_3_links_network.node[0].content_store 	decision_yes[0] 	504
scalar one_cache_scenario_3_links_network.node[0].content_store 	decision_no[0] 	48508
scalar one_cache_scenario_3_links_network.node[0].content_store 	decision_ratio[0] 	0.010283195952012
scalar one_cache_scenario_3_links_network.node[1].core_layer 	interests[1] 	15168
scalar one_cache_scenario_3_links_network.node[1].core_layer 	data[1] 	15168
scalar one_cache_scenario_3_links_network.node[1].content_store 	p_hit[1] 	0
scalar one_cache_scenario_3_links_network.node[1].content_store 	hits[1] 	0
scalar one_cache_scenario_3_links_network.node[1].content_store 	misses[1] 	15168
scalar one_cache_scenario_3_links_network.node[1].content_store 	decision_yes[1] 	0
scalar one_cache_scenario_3_links_network.node[1].content_store 	decision_no[1] 	15168
scalar one_cache_scenario_3_links_network.node[1].content_store 	decision_ratio[1] 	0
scalar one_cache_scenario_3_links_network.node[2].core_layer 	interests[2] 	18008
scalar one_cache_scenario_3_links_network.node[2].core_layer 	data[2] 	18008
scalar one_cache_scenario_3_links_network.node[2].content_store 	p_hit[2] 	0
scalar one_cache_scenario_3_links_network.node[2].content_store 	hits[2] 	0
scalar one_cache_scenario_3_links_network.node[2].content_store 	misses[2] 	18008
scalar one_cache_scenario_3_links_network.node[2].content_store 	decision_yes[2] 	0
scalar one_cache_scenario_3_links_network.node[2].content_store 	decision_no[2] 	18008
scalar one_cache_scenario_3_links_network.node[2].content_store 	decision_ratio[2] 	0
scalar one_cache_scenario_3_links_network.node[3].core_layer 	interests[3] 	15836
scalar one_cache_scenario_3_links_network.node[3].core_layer 	data[3] 	15836
scalar one_cache_scenario_3_links_network.node[3].content_store 	p_hit[3] 	0
scalar one_cache_scenario_3_links_network.node[3].content_store 	hits[3] 	0
scalar one_cache_scenario_3_links_network.node[3].content_store 	misses[3] 	15836
scalar one_cache_scenario_3_links_network.node[3].content_store 	decision_yes[3] 	0
scalar one_cache_scenario_3_links_network.node[3].content_store 	decision_no[3] 	15836
scalar one_cache_scenario_3_links_network.node[3].content_store 	decision_ratio[3] 	0
scalar one_cache_scenario_3_links_network.node[4].core_layer 	interests[4] 	15168
scalar one_cache_scenario_3_links_network.node[4].core_layer 	repo_load[4] 	15168
scalar one_cache_scenario_3_links_network.node[4].core_layer 	data[4] 	0
scalar one_cache_scenario_3_links_network.node[4].content_store 	p_hit[4] 	0
scalar one_cache_scenario_3_links_network.node[4].content_store 	hits[4] 	0
scalar one_cache_scenario_3_links_network.node[4].content_store 	misses[4] 	15168
scalar one_cache_scenario_3_links_network.node[4].content_store 	decision_yes[4] 	0
scalar one_cache_scenario_3_links_network.node[4].content_store 	decision_no[4] 	15168
scalar one_cache_scenario_3_links_network.node[4].content_store 	decision_ratio[4] 	0
scalar one_cache_scenario_3_links_network.node[5].core_layer 	interests[5] 	18008
scalar one_cache_scenario_3_links_network.node[5].core_layer 	repo_load[5] 	18008
scalar one_cache_scenario_3_links_network.node[5].core_layer 	data[5] 	0
scalar one_cache_scenario_3_links_network.node[5].content_store 	p_hit[5] 	0
scalar one_cache_scenario_3_links_network.node[5].content_store 	hits[5] 	0
scalar one_cache_scenario_3_links_network.node[5].content_store 	misses[5] 	18008
scalar one_cache_scenario_3_links_network.node[5].content_store 	decision_yes[5] 	0
scalar one_cache_scenario_3_links_network.node[5].content_store 	decision_no[5] 	18008
scalar one_cache_scenario_3_links_network.node[5].content_store 	decision_ratio[5] 	0
scalar one_cache_scenario_3_links_network.node[6].core_layer 	interests[6] 	15836
scalar one_cache_scenario_3_links_network.node[6].core_layer 	repo_load[6] 	15836
scalar one_cache_scenario_3_links_network.node[6].core_layer 	data[6] 	0
scalar one_cache_scenario_3_links_network.node[6].content_store 	p_hit[6] 	0
scalar one_cache_scenario_3_links_network.node[6].content_store 	hits[6] 	0
scalar one_cache_scenario_3_links_network.node[6].content_store 	misses[6] 	15836
scalar one_cache_scenario_3_links_network.node[6].content_store 	decision_yes[6] 	0
scalar one_cache_scenario_3_links_network.node[6].content_store 	decision_no[6] 	15836
scalar one_cache_scenario_3_links_network.node[6].content_store 	decision_ratio[6] 	0
scalar one_cache_scenario_3_links_network.client[0] 	hdistance[0] 	0.54600345346182
scalar one_cache_scenario_3_links_network.client[0] 	downloads[0] 	179530
scalar one_cache_scenario_3_links_network.client[0] 	avg_time[0] 	0
scalar one_cache_scenario_3_links_network.client[0] 	interests_sent[0] 	179530
