version 2
run General-1-20140513-15:51:14-2033
attr D costprobprodcorr0.01
attr F nrr
attr R lru
attr a 0.8
attr configname General
attr csize 1e4
attr ctlg 1e6
attr datetime 20140513-15:51:14
attr experiment General
attr inifile omnetpp.ini
attr iterationvars "$net=one_cache_scenario_3_links, $rep=1, $priceratiovalue=100, $weights=0.333_0.333_0.334, $a=0.8, $ctlg=1e6, $F=nrr, $ttl=1000, $D=costprobprodcorr0.01, $xi=1, $R=lru, $csize=1e4"
attr iterationvars2 "$net=one_cache_scenario_3_links, $rep=1, $priceratiovalue=100, $weights=0.333_0.333_0.334, $a=0.8, $ctlg=1e6, $F=nrr, $ttl=1000, $D=costprobprodcorr0.01, $xi=1, $R=lru, $csize=1e4, $repetition=0"
attr measurement "$net=one_cache_scenario_3_links, $rep=1, $priceratiovalue=100, $weights=0.333_0.333_0.334, $a=0.8, $ctlg=1e6, $F=nrr, $ttl=1000, $D=costprobprodcorr0.01, $xi=1, $R=lru, $csize=1e4"
attr net one_cache_scenario_3_links
attr network networks.${net=one_cache_scenario_3_links}_network
attr priceratiovalue 100
attr processid 2033
attr rep 1
attr repetition 0
attr replication #0
attr resultdir results
attr runnumber 1
attr seedset 1
attr ttl 1000
attr weights 0.333_0.333_0.334
attr xi 1

scalar . 	a 	0.8
scalar . 	csize 	1e4
scalar . 	ctlg 	1e6
scalar . 	priceratiovalue 	100
scalar . 	rep 	1
scalar . 	ttl 	1000
scalar . 	xi 	1
scalar one_cache_scenario_3_links_network.content_distribution 	repo-0 	4
scalar one_cache_scenario_3_links_network.content_distribution 	repo-1 	5
scalar one_cache_scenario_3_links_network.content_distribution 	repo-2 	6
scalar one_cache_scenario_3_links_network.content_distribution 	client-0 	0
scalar one_cache_scenario_3_links_network.content_distribution 	repo-0_card 	333087
scalar one_cache_scenario_3_links_network.content_distribution 	repo-1_card 	333596
scalar one_cache_scenario_3_links_network.content_distribution 	repo-2_card 	333317
scalar one_cache_scenario_3_links_network.statistics 	p_hit 	0.032211464743304
scalar one_cache_scenario_3_links_network.statistics 	interests 	289750.42857143
scalar one_cache_scenario_3_links_network.statistics 	data 	186944.57142857
scalar one_cache_scenario_3_links_network.statistics 	hdistance 	1.8184284064649
scalar one_cache_scenario_3_links_network.statistics 	avg_time 	0
scalar one_cache_scenario_3_links_network.statistics 	downloads 	719639
scalar one_cache_scenario_3_links_network.statistics 	total_cost 	19287445
scalar one_cache_scenario_3_links_network.statistics 	total_replicas 	1000000
scalar one_cache_scenario_3_links_network.statistics 	interests_sent 	719640
scalar one_cache_scenario_3_links_network.node[0].core_layer 	interests[0] 	719640
scalar one_cache_scenario_3_links_network.node[0].core_layer 	data[0] 	654306
scalar one_cache_scenario_3_links_network.node[0].core_layer 	repo_int[0] 	654306
scalar one_cache_scenario_3_links_network.node[0].content_store 	p_hit[0] 	0.090785670613084
scalar one_cache_scenario_3_links_network.node[0].content_store 	hits[0] 	65333
scalar one_cache_scenario_3_links_network.node[0].content_store 	misses[0] 	654307
scalar one_cache_scenario_3_links_network.node[0].content_store 	decision_yes[0] 	5756
scalar one_cache_scenario_3_links_network.node[0].content_store 	decision_no[0] 	648550
scalar one_cache_scenario_3_links_network.node[0].content_store 	decision_ratio[0] 	0.0087971071639264
scalar one_cache_scenario_3_links_network.node[0].content_store 	correction_factor[0] 	0.00029644561705155
scalar one_cache_scenario_3_links_network.node[0].content_store 	xi[0] 	1
scalar one_cache_scenario_3_links_network.node[1].core_layer 	interests[1] 	235073
scalar one_cache_scenario_3_links_network.node[1].core_layer 	data[1] 	235073
scalar one_cache_scenario_3_links_network.node[1].content_store 	p_hit[1] 	0
scalar one_cache_scenario_3_links_network.node[1].content_store 	hits[1] 	0
scalar one_cache_scenario_3_links_network.node[1].content_store 	misses[1] 	235073
scalar one_cache_scenario_3_links_network.node[1].content_store 	decision_yes[1] 	0
scalar one_cache_scenario_3_links_network.node[1].content_store 	decision_no[1] 	235073
scalar one_cache_scenario_3_links_network.node[1].content_store 	decision_ratio[1] 	0
scalar one_cache_scenario_3_links_network.node[2].core_layer 	interests[2] 	228646
scalar one_cache_scenario_3_links_network.node[2].core_layer 	data[2] 	228645
scalar one_cache_scenario_3_links_network.node[2].content_store 	p_hit[2] 	0
scalar one_cache_scenario_3_links_network.node[2].content_store 	hits[2] 	0
scalar one_cache_scenario_3_links_network.node[2].content_store 	misses[2] 	228646
scalar one_cache_scenario_3_links_network.node[2].content_store 	decision_yes[2] 	0
scalar one_cache_scenario_3_links_network.node[2].content_store 	decision_no[2] 	228645
scalar one_cache_scenario_3_links_network.node[2].content_store 	decision_ratio[2] 	0
scalar one_cache_scenario_3_links_network.node[3].core_layer 	interests[3] 	190588
scalar one_cache_scenario_3_links_network.node[3].core_layer 	data[3] 	190588
scalar one_cache_scenario_3_links_network.node[3].content_store 	p_hit[3] 	0
scalar one_cache_scenario_3_links_network.node[3].content_store 	hits[3] 	0
scalar one_cache_scenario_3_links_network.node[3].content_store 	misses[3] 	190588
scalar one_cache_scenario_3_links_network.node[3].content_store 	decision_yes[3] 	0
scalar one_cache_scenario_3_links_network.node[3].content_store 	decision_no[3] 	190588
scalar one_cache_scenario_3_links_network.node[3].content_store 	decision_ratio[3] 	0
scalar one_cache_scenario_3_links_network.node[4].core_layer 	interests[4] 	235073
scalar one_cache_scenario_3_links_network.node[4].core_layer 	repo_load[4] 	235073
scalar one_cache_scenario_3_links_network.node[4].core_layer 	data[4] 	0
scalar one_cache_scenario_3_links_network.node[4].content_store 	p_hit[4] 	0
scalar one_cache_scenario_3_links_network.node[4].content_store 	hits[4] 	0
scalar one_cache_scenario_3_links_network.node[4].content_store 	misses[4] 	235073
scalar one_cache_scenario_3_links_network.node[4].content_store 	decision_yes[4] 	0
scalar one_cache_scenario_3_links_network.node[4].content_store 	decision_no[4] 	235073
scalar one_cache_scenario_3_links_network.node[4].content_store 	decision_ratio[4] 	0
scalar one_cache_scenario_3_links_network.node[5].core_layer 	interests[5] 	228645
scalar one_cache_scenario_3_links_network.node[5].core_layer 	repo_load[5] 	228645
scalar one_cache_scenario_3_links_network.node[5].core_layer 	data[5] 	0
scalar one_cache_scenario_3_links_network.node[5].content_store 	p_hit[5] 	0
scalar one_cache_scenario_3_links_network.node[5].content_store 	hits[5] 	0
scalar one_cache_scenario_3_links_network.node[5].content_store 	misses[5] 	228645
scalar one_cache_scenario_3_links_network.node[5].content_store 	decision_yes[5] 	0
scalar one_cache_scenario_3_links_network.node[5].content_store 	decision_no[5] 	228645
scalar one_cache_scenario_3_links_network.node[5].content_store 	decision_ratio[5] 	0
scalar one_cache_scenario_3_links_network.node[6].core_layer 	interests[6] 	190588
scalar one_cache_scenario_3_links_network.node[6].core_layer 	repo_load[6] 	190588
scalar one_cache_scenario_3_links_network.node[6].core_layer 	data[6] 	0
scalar one_cache_scenario_3_links_network.node[6].content_store 	p_hit[6] 	0
scalar one_cache_scenario_3_links_network.node[6].content_store 	hits[6] 	0
scalar one_cache_scenario_3_links_network.node[6].content_store 	misses[6] 	190588
scalar one_cache_scenario_3_links_network.node[6].content_store 	decision_yes[6] 	0
scalar one_cache_scenario_3_links_network.node[6].content_store 	decision_no[6] 	190588
scalar one_cache_scenario_3_links_network.node[6].content_store 	decision_ratio[6] 	0
scalar one_cache_scenario_3_links_network.client[0] 	hdistance[0] 	1.8184284064649
scalar one_cache_scenario_3_links_network.client[0] 	downloads[0] 	719639
scalar one_cache_scenario_3_links_network.client[0] 	avg_time[0] 	0
scalar one_cache_scenario_3_links_network.client[0] 	interests_sent[0] 	719640
