version 2
run General-23-20140513-15:50:57-2005
attr D costprobprodcorr0.01
attr F nrr
attr R lru
attr a 1.2
attr configname General
attr csize 1e2
attr ctlg 1e4
attr datetime 20140513-15:50:57
attr experiment General
attr inifile omnetpp.ini
attr iterationvars "$net=one_cache_scenario_3_links, $rep=4, $priceratiovalue=100, $weights=0.333_0.333_0.334, $a=1.2, $ctlg=1e4, $F=nrr, $ttl=1000, $D=costprobprodcorr0.01, $xi=1, $R=lru, $csize=1e2"
attr iterationvars2 "$net=one_cache_scenario_3_links, $rep=4, $priceratiovalue=100, $weights=0.333_0.333_0.334, $a=1.2, $ctlg=1e4, $F=nrr, $ttl=1000, $D=costprobprodcorr0.01, $xi=1, $R=lru, $csize=1e2, $repetition=0"
attr measurement "$net=one_cache_scenario_3_links, $rep=4, $priceratiovalue=100, $weights=0.333_0.333_0.334, $a=1.2, $ctlg=1e4, $F=nrr, $ttl=1000, $D=costprobprodcorr0.01, $xi=1, $R=lru, $csize=1e2"
attr net one_cache_scenario_3_links
attr network networks.${net=one_cache_scenario_3_links}_network
attr priceratiovalue 100
attr processid 2005
attr rep 4
attr repetition 0
attr replication #0
attr resultdir results
attr runnumber 23
attr seedset 4
attr ttl 1000
attr weights 0.333_0.333_0.334
attr xi 1

scalar . 	a 	1.2
scalar . 	csize 	1e2
scalar . 	ctlg 	1e4
scalar . 	priceratiovalue 	100
scalar . 	rep 	4
scalar . 	ttl 	1000
scalar . 	xi 	1
scalar one_cache_scenario_3_links_network.content_distribution 	repo-0 	4
scalar one_cache_scenario_3_links_network.content_distribution 	repo-1 	5
scalar one_cache_scenario_3_links_network.content_distribution 	repo-2 	6
scalar one_cache_scenario_3_links_network.content_distribution 	client-0 	0
scalar one_cache_scenario_3_links_network.content_distribution 	repo-0_card 	3290
scalar one_cache_scenario_3_links_network.content_distribution 	repo-1_card 	3342
scalar one_cache_scenario_3_links_network.content_distribution 	repo-2_card 	3368
scalar one_cache_scenario_3_links_network.statistics 	p_hit 	0.26890440554842
scalar one_cache_scenario_3_links_network.statistics 	interests 	50186.714285714
scalar one_cache_scenario_3_links_network.statistics 	data 	24460.857142857
scalar one_cache_scenario_3_links_network.statistics 	hdistance 	0.95082768309816
scalar one_cache_scenario_3_links_network.statistics 	avg_time 	0
scalar one_cache_scenario_3_links_network.statistics 	downloads 	180081
scalar one_cache_scenario_3_links_network.statistics 	total_cost 	1261213
scalar one_cache_scenario_3_links_network.statistics 	total_replicas 	10000
scalar one_cache_scenario_3_links_network.statistics 	interests_sent 	180081
scalar one_cache_scenario_3_links_network.node[0].core_layer 	interests[0] 	180081
scalar one_cache_scenario_3_links_network.node[0].core_layer 	data[0] 	85613
scalar one_cache_scenario_3_links_network.node[0].core_layer 	repo_int[0] 	85613
scalar one_cache_scenario_3_links_network.node[0].content_store 	p_hit[0] 	0.52458615845092
scalar one_cache_scenario_3_links_network.node[0].content_store 	hits[0] 	94468
scalar one_cache_scenario_3_links_network.node[0].content_store 	misses[0] 	85613
scalar one_cache_scenario_3_links_network.node[0].content_store 	decision_yes[0] 	400
scalar one_cache_scenario_3_links_network.node[0].content_store 	decision_no[0] 	85213
scalar one_cache_scenario_3_links_network.node[0].content_store 	decision_ratio[0] 	0.0046721876350554
scalar one_cache_scenario_3_links_network.node[0].content_store 	correction_factor[0] 	0.00029644561705155
scalar one_cache_scenario_3_links_network.node[0].content_store 	xi[0] 	1
scalar one_cache_scenario_3_links_network.node[1].core_layer 	interests[1] 	39130
scalar one_cache_scenario_3_links_network.node[1].core_layer 	data[1] 	39130
scalar one_cache_scenario_3_links_network.node[1].content_store 	p_hit[1] 	0
scalar one_cache_scenario_3_links_network.node[1].content_store 	hits[1] 	0
scalar one_cache_scenario_3_links_network.node[1].content_store 	misses[1] 	39130
scalar one_cache_scenario_3_links_network.node[1].content_store 	decision_yes[1] 	0
scalar one_cache_scenario_3_links_network.node[1].content_store 	decision_no[1] 	39130
scalar one_cache_scenario_3_links_network.node[1].content_store 	decision_ratio[1] 	0
scalar one_cache_scenario_3_links_network.node[2].core_layer 	interests[2] 	34213
scalar one_cache_scenario_3_links_network.node[2].core_layer 	data[2] 	34213
scalar one_cache_scenario_3_links_network.node[2].content_store 	p_hit[2] 	0
scalar one_cache_scenario_3_links_network.node[2].content_store 	hits[2] 	0
scalar one_cache_scenario_3_links_network.node[2].content_store 	misses[2] 	34213
scalar one_cache_scenario_3_links_network.node[2].content_store 	decision_yes[2] 	0
scalar one_cache_scenario_3_links_network.node[2].content_store 	decision_no[2] 	34213
scalar one_cache_scenario_3_links_network.node[2].content_store 	decision_ratio[2] 	0
scalar one_cache_scenario_3_links_network.node[3].core_layer 	interests[3] 	12270
scalar one_cache_scenario_3_links_network.node[3].core_layer 	data[3] 	12270
scalar one_cache_scenario_3_links_network.node[3].content_store 	p_hit[3] 	0
scalar one_cache_scenario_3_links_network.node[3].content_store 	hits[3] 	0
scalar one_cache_scenario_3_links_network.node[3].content_store 	misses[3] 	12270
scalar one_cache_scenario_3_links_network.node[3].content_store 	decision_yes[3] 	0
scalar one_cache_scenario_3_links_network.node[3].content_store 	decision_no[3] 	12270
scalar one_cache_scenario_3_links_network.node[3].content_store 	decision_ratio[3] 	0
scalar one_cache_scenario_3_links_network.node[4].core_layer 	interests[4] 	39130
scalar one_cache_scenario_3_links_network.node[4].core_layer 	repo_load[4] 	39130
scalar one_cache_scenario_3_links_network.node[4].core_layer 	data[4] 	0
scalar one_cache_scenario_3_links_network.node[4].content_store 	p_hit[4] 	0
scalar one_cache_scenario_3_links_network.node[4].content_store 	hits[4] 	0
scalar one_cache_scenario_3_links_network.node[4].content_store 	misses[4] 	39130
scalar one_cache_scenario_3_links_network.node[4].content_store 	decision_yes[4] 	0
scalar one_cache_scenario_3_links_network.node[4].content_store 	decision_no[4] 	39130
scalar one_cache_scenario_3_links_network.node[4].content_store 	decision_ratio[4] 	0
scalar one_cache_scenario_3_links_network.node[5].core_layer 	interests[5] 	34213
scalar one_cache_scenario_3_links_network.node[5].core_layer 	repo_load[5] 	34213
scalar one_cache_scenario_3_links_network.node[5].core_layer 	data[5] 	0
scalar one_cache_scenario_3_links_network.node[5].content_store 	p_hit[5] 	0
scalar one_cache_scenario_3_links_network.node[5].content_store 	hits[5] 	0
scalar one_cache_scenario_3_links_network.node[5].content_store 	misses[5] 	34213
scalar one_cache_scenario_3_links_network.node[5].content_store 	decision_yes[5] 	0
scalar one_cache_scenario_3_links_network.node[5].content_store 	decision_no[5] 	34213
scalar one_cache_scenario_3_links_network.node[5].content_store 	decision_ratio[5] 	0
scalar one_cache_scenario_3_links_network.node[6].core_layer 	interests[6] 	12270
scalar one_cache_scenario_3_links_network.node[6].core_layer 	repo_load[6] 	12270
scalar one_cache_scenario_3_links_network.node[6].core_layer 	data[6] 	0
scalar one_cache_scenario_3_links_network.node[6].content_store 	p_hit[6] 	0
scalar one_cache_scenario_3_links_network.node[6].content_store 	hits[6] 	0
scalar one_cache_scenario_3_links_network.node[6].content_store 	misses[6] 	12270
scalar one_cache_scenario_3_links_network.node[6].content_store 	decision_yes[6] 	0
scalar one_cache_scenario_3_links_network.node[6].content_store 	decision_no[6] 	12270
scalar one_cache_scenario_3_links_network.node[6].content_store 	decision_ratio[6] 	0
scalar one_cache_scenario_3_links_network.client[0] 	hdistance[0] 	0.95082768309816
scalar one_cache_scenario_3_links_network.client[0] 	downloads[0] 	180081
scalar one_cache_scenario_3_links_network.client[0] 	avg_time[0] 	0
scalar one_cache_scenario_3_links_network.client[0] 	interests_sent[0] 	180081
