version 2
run General-1-20140101-22:56:38-24636
attr D lce
attr F spr
attr R lru
attr a 0.8
attr configname General
attr csize 10^3
attr datetime 20140101-22:56:38
attr experiment General
attr inifile omnetpp.ini
attr iterationvars "$net=simple_scenario, $rep=0, $a=0.8, $F=spr, $ttl=1000, $D=lce, $R=lru, $csize=10^3"
attr iterationvars2 "$net=simple_scenario, $rep=0, $a=0.8, $F=spr, $ttl=1000, $D=lce, $R=lru, $csize=10^3, $repetition=0"
attr measurement "$net=simple_scenario, $rep=0, $a=0.8, $F=spr, $ttl=1000, $D=lce, $R=lru, $csize=10^3"
attr net simple_scenario
attr network networks.${net=simple_scenario}_network
attr processid 24636
attr rep 0
attr repetition 0
attr replication #0
attr resultdir results
attr runnumber 1
attr seedset 0
attr ttl 1000

scalar . 	a 	0.8
scalar . 	rep 	0
scalar . 	ttl 	1000
scalar simple_scenario_network.content_distribution 	repo-0 	3
scalar simple_scenario_network.content_distribution 	repo-1 	4
scalar simple_scenario_network.content_distribution 	client-0 	0
scalar simple_scenario_network.node[0].face$o[1].channel 	effectiveCost:sum 	0
scalar simple_scenario_network.node[0].face$o[2].channel 	effectiveCost:sum 	0
scalar simple_scenario_network.node[1].face$o[1].channel 	effectiveCost:sum 	0
scalar simple_scenario_network.node[1].face$o[2].channel 	effectiveCost:sum 	0
scalar simple_scenario_network.node[2].face$o[1].channel 	effectiveCost:sum 	0
scalar simple_scenario_network.node[2].face$o[2].channel 	effectiveCost:sum 	0
scalar simple_scenario_network.node[3].face$o[1].channel 	effectiveCost:sum 	83622
scalar simple_scenario_network.node[4].face$o[1].channel 	effectiveCost:sum 	0
scalar simple_scenario_network.statistics 	p_hit 	0.035731341382851
scalar simple_scenario_network.statistics 	interests 	100511.2
scalar simple_scenario_network.statistics 	data 	64613.2
scalar simple_scenario_network.statistics 	hdistance 	2.6998662878155
scalar simple_scenario_network.statistics 	avg_time 	0.001999860597
scalar simple_scenario_network.statistics 	downloads 	179490
scalar simple_scenario_network.node[0].core_layer 	interests[0] 	179490
scalar simple_scenario_network.node[0].core_layer 	data[0] 	161533
scalar simple_scenario_network.node[0].core_layer 	repo_int[0] 	161533
scalar simple_scenario_network.node[0].content_store 	p_hit[0] 	0.10004457072817
scalar simple_scenario_network.node[0].content_store 	hits[0] 	17957
scalar simple_scenario_network.node[0].content_store 	misses[0] 	161533
scalar simple_scenario_network.node[1].core_layer 	interests[1] 	80442
scalar simple_scenario_network.node[1].core_layer 	data[1] 	80442
scalar simple_scenario_network.node[1].content_store 	p_hit[1] 	0
scalar simple_scenario_network.node[1].content_store 	hits[1] 	0
scalar simple_scenario_network.node[1].content_store 	misses[1] 	80442
scalar simple_scenario_network.node[2].core_layer 	interests[2] 	81091
scalar simple_scenario_network.node[2].core_layer 	data[2] 	81091
scalar simple_scenario_network.node[2].content_store 	p_hit[2] 	0
scalar simple_scenario_network.node[2].content_store 	hits[2] 	0
scalar simple_scenario_network.node[2].content_store 	misses[2] 	81091
scalar simple_scenario_network.node[3].core_layer 	interests[3] 	80442
scalar simple_scenario_network.node[3].core_layer 	repo_load[3] 	83622
scalar simple_scenario_network.node[3].core_layer 	data[3] 	0
scalar simple_scenario_network.node[3].content_store 	p_hit[3] 	0
scalar simple_scenario_network.node[3].content_store 	hits[3] 	0
scalar simple_scenario_network.node[3].content_store 	misses[3] 	80442
scalar simple_scenario_network.node[4].core_layer 	interests[4] 	81091
scalar simple_scenario_network.node[4].core_layer 	repo_load[4] 	84373
scalar simple_scenario_network.node[4].core_layer 	data[4] 	0
scalar simple_scenario_network.node[4].content_store 	p_hit[4] 	0
scalar simple_scenario_network.node[4].content_store 	hits[4] 	0
scalar simple_scenario_network.node[4].content_store 	misses[4] 	81091
scalar simple_scenario_network.client[0] 	hdistance[0] 	2.6998662878155
scalar simple_scenario_network.client[0] 	downloads[0] 	179490
scalar simple_scenario_network.client[0] 	avg_time[0] 	0.001999860597
