version 2
run General-1490-20140421-20:35:42-16249
attr D prob_cache
attr F nrr
attr R lru
attr a 0.8
attr configname General
attr csize 10
attr ctlg 10^3
attr datetime 20140421-20:35:42
attr experiment General
attr inifile omnetpp.ini
attr iterationvars "$net=simple_scenario, $rep=30, $priceratiovalue=9, $a=0.8, $ctlg=10^3, $F=nrr, $ttl=1000, $D=prob_cache, $R=lru, $csize=10"
attr iterationvars2 "$net=simple_scenario, $rep=30, $priceratiovalue=9, $a=0.8, $ctlg=10^3, $F=nrr, $ttl=1000, $D=prob_cache, $R=lru, $csize=10, $repetition=0"
attr measurement "$net=simple_scenario, $rep=30, $priceratiovalue=9, $a=0.8, $ctlg=10^3, $F=nrr, $ttl=1000, $D=prob_cache, $R=lru, $csize=10"
attr net simple_scenario
attr network networks.${net=simple_scenario}_network
attr priceratiovalue 9
attr processid 16249
attr rep 30
attr repetition 0
attr replication #0
attr resultdir results
attr runnumber 1490
attr seedset 30
attr ttl 1000

scalar . 	a 	0.8
scalar . 	csize 	10
scalar . 	priceratiovalue 	9
scalar . 	rep 	30
scalar . 	ttl 	1000
scalar simple_scenario_network.content_distribution 	repo-0 	3
scalar simple_scenario_network.content_distribution 	repo-1 	4
scalar simple_scenario_network.content_distribution 	client-0 	0
scalar simple_scenario_network.content_distribution 	repo-0_card 	484
scalar simple_scenario_network.content_distribution 	repo-1_card 	516
scalar simple_scenario_network.statistics 	p_hit 	0.077834027715542
scalar simple_scenario_network.statistics 	interests 	95960.6
scalar simple_scenario_network.statistics 	data 	59879.6
scalar simple_scenario_network.statistics 	hdistance 	2.4525816911948
scalar simple_scenario_network.statistics 	avg_time 	0.001998207008
scalar simple_scenario_network.statistics 	downloads 	180405
scalar simple_scenario_network.statistics 	total_cost 	77949
scalar simple_scenario_network.node[0].core_layer 	interests[0] 	180405
scalar simple_scenario_network.node[0].core_layer 	data[0] 	156338
scalar simple_scenario_network.node[0].core_layer 	repo_int[0] 	143060
scalar simple_scenario_network.node[0].content_store 	p_hit[0] 	0.13340539342036
scalar simple_scenario_network.node[0].content_store 	hits[0] 	24067
scalar simple_scenario_network.node[0].content_store 	misses[0] 	156338
scalar simple_scenario_network.node[1].core_layer 	interests[1] 	68973
scalar simple_scenario_network.node[1].core_layer 	data[1] 	63505
scalar simple_scenario_network.node[1].content_store 	p_hit[1] 	0.079277398402273
scalar simple_scenario_network.node[1].content_store 	hits[1] 	5468
scalar simple_scenario_network.node[1].content_store 	misses[1] 	63505
scalar simple_scenario_network.node[2].core_layer 	interests[2] 	87365
scalar simple_scenario_network.node[2].core_layer 	data[2] 	79555
scalar simple_scenario_network.node[2].content_store 	p_hit[2] 	0.089395066674297
scalar simple_scenario_network.node[2].content_store 	hits[2] 	7810
scalar simple_scenario_network.node[2].content_store 	misses[2] 	79555
scalar simple_scenario_network.node[3].core_layer 	interests[3] 	63505
scalar simple_scenario_network.node[3].core_layer 	repo_load[3] 	63505
scalar simple_scenario_network.node[3].core_layer 	data[3] 	0
scalar simple_scenario_network.node[3].content_store 	p_hit[3] 	0
scalar simple_scenario_network.node[3].content_store 	hits[3] 	0
scalar simple_scenario_network.node[3].content_store 	misses[3] 	63505
scalar simple_scenario_network.node[4].core_layer 	interests[4] 	79555
scalar simple_scenario_network.node[4].core_layer 	repo_load[4] 	79555
scalar simple_scenario_network.node[4].core_layer 	data[4] 	0
scalar simple_scenario_network.node[4].content_store 	p_hit[4] 	0
scalar simple_scenario_network.node[4].content_store 	hits[4] 	0
scalar simple_scenario_network.node[4].content_store 	misses[4] 	79555
scalar simple_scenario_network.client[0] 	hdistance[0] 	2.4525816911948
scalar simple_scenario_network.client[0] 	downloads[0] 	180405
scalar simple_scenario_network.client[0] 	avg_time[0] 	0.001998207008
