version 2
run General-1970-20140421-20:46:49-16763
attr D prob_cache
attr F nrr
attr R lru
attr a 0.8
attr configname General
attr csize 10
attr ctlg 10^3
attr datetime 20140421-20:46:49
attr experiment General
attr inifile omnetpp.ini
attr iterationvars "$net=simple_scenario, $rep=38, $priceratiovalue=9, $a=0.8, $ctlg=10^3, $F=nrr, $ttl=1000, $D=prob_cache, $R=lru, $csize=10"
attr iterationvars2 "$net=simple_scenario, $rep=38, $priceratiovalue=9, $a=0.8, $ctlg=10^3, $F=nrr, $ttl=1000, $D=prob_cache, $R=lru, $csize=10, $repetition=0"
attr measurement "$net=simple_scenario, $rep=38, $priceratiovalue=9, $a=0.8, $ctlg=10^3, $F=nrr, $ttl=1000, $D=prob_cache, $R=lru, $csize=10"
attr net simple_scenario
attr network networks.${net=simple_scenario}_network
attr priceratiovalue 9
attr processid 16763
attr rep 38
attr repetition 0
attr replication #0
attr resultdir results
attr runnumber 1970
attr seedset 38
attr ttl 1000

scalar . 	a 	0.8
scalar . 	csize 	10
scalar . 	priceratiovalue 	9
scalar . 	rep 	38
scalar . 	ttl 	1000
scalar simple_scenario_network.content_distribution 	repo-0 	3
scalar simple_scenario_network.content_distribution 	repo-1 	4
scalar simple_scenario_network.content_distribution 	client-0 	0
scalar simple_scenario_network.content_distribution 	repo-0_card 	494
scalar simple_scenario_network.content_distribution 	repo-1_card 	506
scalar simple_scenario_network.statistics 	p_hit 	0.077945141580573
scalar simple_scenario_network.statistics 	interests 	95613.4
scalar simple_scenario_network.statistics 	data 	59661.4
scalar simple_scenario_network.statistics 	hdistance 	2.4521806853583
scalar simple_scenario_network.statistics 	avg_time 	0.001997970181
scalar simple_scenario_network.statistics 	downloads 	179760
scalar simple_scenario_network.statistics 	total_cost 	77239
scalar simple_scenario_network.node[0].core_layer 	interests[0] 	179760
scalar simple_scenario_network.node[0].core_layer 	data[0] 	155810
scalar simple_scenario_network.node[0].core_layer 	repo_int[0] 	142497
scalar simple_scenario_network.node[0].content_store 	p_hit[0] 	0.13323319982198
scalar simple_scenario_network.node[0].content_store 	hits[0] 	23950
scalar simple_scenario_network.node[0].content_store 	misses[0] 	155810
scalar simple_scenario_network.node[1].core_layer 	interests[1] 	69719
scalar simple_scenario_network.node[1].core_layer 	data[1] 	63759
scalar simple_scenario_network.node[1].content_store 	p_hit[1] 	0.085486022461596
scalar simple_scenario_network.node[1].content_store 	hits[1] 	5960
scalar simple_scenario_network.node[1].content_store 	misses[1] 	63759
scalar simple_scenario_network.node[2].core_layer 	interests[2] 	86091
scalar simple_scenario_network.node[2].core_layer 	data[2] 	78738
scalar simple_scenario_network.node[2].content_store 	p_hit[2] 	0.085409624699446
scalar simple_scenario_network.node[2].content_store 	hits[2] 	7353
scalar simple_scenario_network.node[2].content_store 	misses[2] 	78738
scalar simple_scenario_network.node[3].core_layer 	interests[3] 	63759
scalar simple_scenario_network.node[3].core_layer 	repo_load[3] 	63759
scalar simple_scenario_network.node[3].core_layer 	data[3] 	0
scalar simple_scenario_network.node[3].content_store 	p_hit[3] 	0
scalar simple_scenario_network.node[3].content_store 	hits[3] 	0
scalar simple_scenario_network.node[3].content_store 	misses[3] 	63759
scalar simple_scenario_network.node[4].core_layer 	interests[4] 	78738
scalar simple_scenario_network.node[4].core_layer 	repo_load[4] 	78738
scalar simple_scenario_network.node[4].core_layer 	data[4] 	0
scalar simple_scenario_network.node[4].content_store 	p_hit[4] 	0
scalar simple_scenario_network.node[4].content_store 	hits[4] 	0
scalar simple_scenario_network.node[4].content_store 	misses[4] 	78738
scalar simple_scenario_network.client[0] 	hdistance[0] 	2.4521806853583
scalar simple_scenario_network.client[0] 	downloads[0] 	179760
scalar simple_scenario_network.client[0] 	avg_time[0] 	0.001997970181
