version 2
run General-277-20150312-16:39:32-10095
attr D fix0.01
attr F nrr
attr R lru
attr a 1
attr configname General
attr csize 1e3
attr ctlg 1e5
attr datetime 20150312-16:39:32
attr experiment General
attr inifile omnetpp.ini
attr iterationvars "$rep=19, $net=cost_scenario, $lambda=100, $a=1, $ctlg=1e5, $F=nrr, $ttl=10, $D=fix0.01, $R=lru, $csize=1e3, $window=60, $variance=0.05, $mytime=1800, $kappa=1, $priceratiovalue=5, $splits=0.333_0.333_0.334, $pricebits=0"
attr iterationvars2 "$rep=19, $net=cost_scenario, $lambda=100, $a=1, $ctlg=1e5, $F=nrr, $ttl=10, $D=fix0.01, $R=lru, $csize=1e3, $window=60, $variance=0.05, $mytime=1800, $kappa=1, $priceratiovalue=5, $splits=0.333_0.333_0.334, $pricebits=0, $repetition=0"
attr kappa 1
attr lambda 100
attr measurement "$rep=19, $net=cost_scenario, $lambda=100, $a=1, $ctlg=1e5, $F=nrr, $ttl=10, $D=fix0.01, $R=lru, $csize=1e3, $window=60, $variance=0.05, $mytime=1800, $kappa=1, $priceratiovalue=5, $splits=0.333_0.333_0.334, $pricebits=0"
attr mytime 1800
attr net cost_scenario
attr network networks.${net=cost_scenario}_network
attr pricebits 0
attr priceratiovalue 5
attr processid 10095
attr rep 19
attr repetition 0
attr replication #0
attr resultdir results
attr runnumber 277
attr seedset 19
attr splits 0.333_0.333_0.334
attr ttl 10
attr variance 0.05
attr window 60

scalar . 	a 	1
scalar . 	csize 	1e3
scalar . 	ctlg 	1e5
scalar . 	kappa 	1
scalar . 	lambda 	100
scalar . 	mytime 	1800
scalar . 	pricebits 	0
scalar . 	priceratiovalue 	5
scalar . 	rep 	19
scalar . 	ttl 	10
scalar . 	variance 	0.05
scalar . 	window 	60
scalar cost_scenario_network.content_distribution 	repo-0 	1
scalar cost_scenario_network.content_distribution 	repo-1 	2
scalar cost_scenario_network.content_distribution 	repo-2 	3
scalar cost_scenario_network.content_distribution 	client-0 	0
scalar cost_scenario_network.content_distribution 	repo-0_card 	33369
scalar cost_scenario_network.content_distribution 	repo-0_price 	1
scalar cost_scenario_network.content_distribution 	repo-1_card 	33388
scalar cost_scenario_network.content_distribution 	repo-1_price 	5
scalar cost_scenario_network.content_distribution 	repo-2_card 	33243
scalar cost_scenario_network.content_distribution 	repo-2_price 	0
scalar cost_scenario_network.statistics 	repo_popularity[0] 	0.27593712184551
scalar cost_scenario_network.statistics 	repo_popularity[1] 	0.33425984203884
scalar cost_scenario_network.statistics 	repo_popularity[2] 	0.38980303611567
scalar cost_scenario_network.statistics 	stabilization_time 	186.6
scalar cost_scenario_network.statistics 	p_hit 	0.24532511944896
scalar cost_scenario_network.statistics 	interests 	72154.25
scalar cost_scenario_network.statistics 	data 	27226.5
scalar cost_scenario_network.statistics 	hdistance 	1.2120126202626
scalar cost_scenario_network.statistics 	avg_time 	0
scalar cost_scenario_network.statistics 	downloads 	179711
scalar cost_scenario_network.statistics 	total_cost 	222630
scalar cost_scenario_network.statistics 	total_replicas 	100000
scalar cost_scenario_network.statistics 	inner_hit 	0.39399368986873
scalar cost_scenario_network.statistics 	interests_sent 	179711
scalar cost_scenario_network.node[0].core_layer 	interests[0] 	179711
scalar cost_scenario_network.node[0].core_layer 	data[0] 	108906
scalar cost_scenario_network.node[0].core_layer 	repo_int[0] 	108906
scalar cost_scenario_network.node[0].content_store 	p_hit[0] 	0.39399368986873
scalar cost_scenario_network.node[0].content_store 	hits[0] 	70805
scalar cost_scenario_network.node[0].content_store 	misses[0] 	108906
scalar cost_scenario_network.node[0].content_store 	decision_yes[0] 	1109
scalar cost_scenario_network.node[0].content_store 	decision_no[0] 	107797
scalar cost_scenario_network.node[0].content_store 	decision_ratio[0] 	0.010183093677116
scalar cost_scenario_network.node[0].content_store 	cache_value[0] 	9.083157632533
scalar cost_scenario_network.node[0].content_store 	average_price_of_cache[0] 	2.19
scalar cost_scenario_network.node[1].core_layer 	interests[1] 	35875
scalar cost_scenario_network.node[1].core_layer 	repo_load[1] 	35875
scalar cost_scenario_network.node[1].core_layer 	data[1] 	0
scalar cost_scenario_network.node[1].content_store 	p_hit[1] 	0
scalar cost_scenario_network.node[1].content_store 	hits[1] 	0
scalar cost_scenario_network.node[1].content_store 	misses[1] 	35875
scalar cost_scenario_network.node[1].content_store 	decision_yes[1] 	0
scalar cost_scenario_network.node[1].content_store 	decision_no[1] 	35875
scalar cost_scenario_network.node[1].content_store 	decision_ratio[1] 	0
scalar cost_scenario_network.node[1].content_store 	cache_value[1] 	2.1816848023403e-316
scalar cost_scenario_network.node[1].content_store 	average_price_of_cache[1] 	-nan
scalar cost_scenario_network.node[2].core_layer 	interests[2] 	37351
scalar cost_scenario_network.node[2].core_layer 	repo_load[2] 	37351
scalar cost_scenario_network.node[2].core_layer 	data[2] 	0
scalar cost_scenario_network.node[2].content_store 	p_hit[2] 	0
scalar cost_scenario_network.node[2].content_store 	hits[2] 	0
scalar cost_scenario_network.node[2].content_store 	misses[2] 	37351
scalar cost_scenario_network.node[2].content_store 	decision_yes[2] 	0
scalar cost_scenario_network.node[2].content_store 	decision_no[2] 	37351
scalar cost_scenario_network.node[2].content_store 	decision_ratio[2] 	0
scalar cost_scenario_network.node[2].content_store 	cache_value[2] 	2.181843693852e-316
scalar cost_scenario_network.node[2].content_store 	average_price_of_cache[2] 	-nan
scalar cost_scenario_network.node[3].core_layer 	interests[3] 	35680
scalar cost_scenario_network.node[3].core_layer 	repo_load[3] 	35680
scalar cost_scenario_network.node[3].core_layer 	data[3] 	0
scalar cost_scenario_network.node[3].content_store 	p_hit[3] 	0
scalar cost_scenario_network.node[3].content_store 	hits[3] 	0
scalar cost_scenario_network.node[3].content_store 	misses[3] 	35680
scalar cost_scenario_network.node[3].content_store 	decision_yes[3] 	0
scalar cost_scenario_network.node[3].content_store 	decision_no[3] 	35680
scalar cost_scenario_network.node[3].content_store 	decision_ratio[3] 	0
scalar cost_scenario_network.node[3].content_store 	cache_value[3] 	2.1820025853637e-316
scalar cost_scenario_network.node[3].content_store 	average_price_of_cache[3] 	-nan
scalar cost_scenario_network.client[0] 	hdistance[0] 	1.2120126202626
scalar cost_scenario_network.client[0] 	downloads[0] 	179711
scalar cost_scenario_network.client[0] 	avg_time[0] 	0
scalar cost_scenario_network.client[0] 	interests_sent[0] 	179711
