version 2
run General-2745-20140423-19:41:20-28896
attr D costprob0.1
attr F nrr
attr R lru
attr a 0
attr configname General
attr csize 2
attr ctlg 10^3
attr datetime 20140423-19:41:20
attr experiment General
attr inifile omnetpp.ini
attr iterationvars "$net=simple_scenario, $rep=8, $priceratiovalue=7, $a=0, $ctlg=10^3, $F=nrr, $ttl=1000, $D=costprob0.1, $R=lru, $csize=2"
attr iterationvars2 "$net=simple_scenario, $rep=8, $priceratiovalue=7, $a=0, $ctlg=10^3, $F=nrr, $ttl=1000, $D=costprob0.1, $R=lru, $csize=2, $repetition=0"
attr measurement "$net=simple_scenario, $rep=8, $priceratiovalue=7, $a=0, $ctlg=10^3, $F=nrr, $ttl=1000, $D=costprob0.1, $R=lru, $csize=2"
attr net simple_scenario
attr network networks.${net=simple_scenario}_network
attr priceratiovalue 7
attr processid 28896
attr rep 8
attr repetition 0
attr replication #0
attr resultdir results
attr runnumber 2745
attr seedset 8
attr ttl 1000

scalar . 	a 	0
scalar . 	csize 	2
scalar . 	priceratiovalue 	7
scalar . 	rep 	8
scalar . 	ttl 	1000
scalar simple_scenario_network.content_distribution 	repo-0 	3
scalar simple_scenario_network.content_distribution 	repo-1 	4
scalar simple_scenario_network.content_distribution 	client-0 	0
scalar simple_scenario_network.content_distribution 	repo-0_card 	485
scalar simple_scenario_network.content_distribution 	repo-1_card 	515
scalar simple_scenario_network.statistics 	p_hit 	0.0019139076047168
scalar simple_scenario_network.statistics 	interests 	107633.2
scalar simple_scenario_network.statistics 	data 	71663.2
scalar simple_scenario_network.statistics 	hdistance 	2.986577703642
scalar simple_scenario_network.statistics 	avg_time 	0.001999767442
scalar simple_scenario_network.statistics 	downloads 	179850
scalar simple_scenario_network.statistics 	total_cost 	91136
scalar simple_scenario_network.node[0].core_layer 	interests[0] 	179850
scalar simple_scenario_network.node[0].core_layer 	data[0] 	179496
scalar simple_scenario_network.node[0].core_layer 	repo_int[0] 	178820
scalar simple_scenario_network.node[0].content_store 	p_hit[0] 	0.0019683069224354
scalar simple_scenario_network.node[0].content_store 	hits[0] 	354
scalar simple_scenario_network.node[0].content_store 	misses[0] 	179496
scalar simple_scenario_network.node[1].core_layer 	interests[1] 	87485
scalar simple_scenario_network.node[1].core_layer 	data[1] 	87108
scalar simple_scenario_network.node[1].content_store 	p_hit[1] 	0.0043093101674573
scalar simple_scenario_network.node[1].content_store 	hits[1] 	377
scalar simple_scenario_network.node[1].content_store 	misses[1] 	87108
scalar simple_scenario_network.node[2].core_layer 	interests[2] 	92011
scalar simple_scenario_network.node[2].core_layer 	data[2] 	91712
scalar simple_scenario_network.node[2].content_store 	p_hit[2] 	0.0032496114594994
scalar simple_scenario_network.node[2].content_store 	hits[2] 	299
scalar simple_scenario_network.node[2].content_store 	misses[2] 	91712
scalar simple_scenario_network.node[3].core_layer 	interests[3] 	87108
scalar simple_scenario_network.node[3].core_layer 	repo_load[3] 	87108
scalar simple_scenario_network.node[3].core_layer 	data[3] 	0
scalar simple_scenario_network.node[3].content_store 	p_hit[3] 	0
scalar simple_scenario_network.node[3].content_store 	hits[3] 	0
scalar simple_scenario_network.node[3].content_store 	misses[3] 	87108
scalar simple_scenario_network.node[4].core_layer 	interests[4] 	91712
scalar simple_scenario_network.node[4].core_layer 	repo_load[4] 	91712
scalar simple_scenario_network.node[4].core_layer 	data[4] 	0
scalar simple_scenario_network.node[4].content_store 	p_hit[4] 	0
scalar simple_scenario_network.node[4].content_store 	hits[4] 	0
scalar simple_scenario_network.node[4].content_store 	misses[4] 	91712
scalar simple_scenario_network.client[0] 	hdistance[0] 	2.986577703642
scalar simple_scenario_network.client[0] 	downloads[0] 	179850
scalar simple_scenario_network.client[0] 	avg_time[0] 	0.001999767442
