version 2
run General-8262-20140425-12:37:19-10745
attr D fix0.01
attr F nrr
attr R lru
attr a 1.2
attr configname General
attr csize 30
attr ctlg 10^3
attr datetime 20140425-12:37:19
attr experiment General
attr inifile omnetpp.ini
attr iterationvars "$net=one_cache_scenario, $rep=20, $priceratiovalue=7, $a=1.2, $ctlg=10^3, $F=nrr, $ttl=1000, $D=fix0.01, $R=lru, $csize=30"
attr iterationvars2 "$net=one_cache_scenario, $rep=20, $priceratiovalue=7, $a=1.2, $ctlg=10^3, $F=nrr, $ttl=1000, $D=fix0.01, $R=lru, $csize=30, $repetition=0"
attr measurement "$net=one_cache_scenario, $rep=20, $priceratiovalue=7, $a=1.2, $ctlg=10^3, $F=nrr, $ttl=1000, $D=fix0.01, $R=lru, $csize=30"
attr net one_cache_scenario
attr network networks.${net=one_cache_scenario}_network
attr priceratiovalue 7
attr processid 10745
attr rep 20
attr repetition 0
attr replication #0
attr resultdir results
attr runnumber 8262
attr seedset 20
attr ttl 1000

scalar . 	a 	1.2
scalar . 	csize 	30
scalar . 	priceratiovalue 	7
scalar . 	rep 	20
scalar . 	ttl 	1000
scalar one_cache_scenario_network.content_distribution 	repo-0 	3
scalar one_cache_scenario_network.content_distribution 	repo-1 	4
scalar one_cache_scenario_network.content_distribution 	client-0 	0
scalar one_cache_scenario_network.content_distribution 	repo-0_card 	474
scalar one_cache_scenario_network.content_distribution 	repo-1_card 	526
scalar one_cache_scenario_network.statistics 	p_hit 	0.418911810719
scalar one_cache_scenario_network.statistics 	interests 	58934.6
scalar one_cache_scenario_network.statistics 	data 	22830.8
scalar one_cache_scenario_network.statistics 	hdistance 	0.63236556816733
scalar one_cache_scenario_network.statistics 	avg_time 	0
scalar one_cache_scenario_network.statistics 	downloads 	180519
scalar one_cache_scenario_network.statistics 	total_cost 	30466
scalar one_cache_scenario_network.statistics 	interests_sent 	180519
scalar one_cache_scenario_network.node[0].core_layer 	interests[0] 	180519
scalar one_cache_scenario_network.node[0].core_layer 	data[0] 	57077
scalar one_cache_scenario_network.node[0].core_layer 	repo_int[0] 	57077
scalar one_cache_scenario_network.node[0].content_store 	p_hit[0] 	0.68381721591633
scalar one_cache_scenario_network.node[0].content_store 	hits[0] 	123442
scalar one_cache_scenario_network.node[0].content_store 	misses[0] 	57077
scalar one_cache_scenario_network.node[0].content_store 	decision_yes[0] 	551
scalar one_cache_scenario_network.node[0].content_store 	decision_no[0] 	56526
scalar one_cache_scenario_network.node[1].core_layer 	interests[1] 	25968
scalar one_cache_scenario_network.node[1].core_layer 	data[1] 	25968
scalar one_cache_scenario_network.node[1].content_store 	p_hit[1] 	0
scalar one_cache_scenario_network.node[1].content_store 	hits[1] 	0
scalar one_cache_scenario_network.node[1].content_store 	misses[1] 	25968
scalar one_cache_scenario_network.node[1].content_store 	decision_yes[1] 	0
scalar one_cache_scenario_network.node[1].content_store 	decision_no[1] 	25968
scalar one_cache_scenario_network.node[2].core_layer 	interests[2] 	31109
scalar one_cache_scenario_network.node[2].core_layer 	data[2] 	31109
scalar one_cache_scenario_network.node[2].content_store 	p_hit[2] 	0
scalar one_cache_scenario_network.node[2].content_store 	hits[2] 	0
scalar one_cache_scenario_network.node[2].content_store 	misses[2] 	31109
scalar one_cache_scenario_network.node[2].content_store 	decision_yes[2] 	0
scalar one_cache_scenario_network.node[2].content_store 	decision_no[2] 	31109
scalar one_cache_scenario_network.node[3].core_layer 	interests[3] 	25968
scalar one_cache_scenario_network.node[3].core_layer 	repo_load[3] 	25968
scalar one_cache_scenario_network.node[3].core_layer 	data[3] 	0
scalar one_cache_scenario_network.node[3].content_store 	p_hit[3] 	0
scalar one_cache_scenario_network.node[3].content_store 	hits[3] 	0
scalar one_cache_scenario_network.node[3].content_store 	misses[3] 	25968
scalar one_cache_scenario_network.node[3].content_store 	decision_yes[3] 	0
scalar one_cache_scenario_network.node[3].content_store 	decision_no[3] 	25968
scalar one_cache_scenario_network.node[4].core_layer 	interests[4] 	31109
scalar one_cache_scenario_network.node[4].core_layer 	repo_load[4] 	31109
scalar one_cache_scenario_network.node[4].core_layer 	data[4] 	0
scalar one_cache_scenario_network.node[4].content_store 	p_hit[4] 	0
scalar one_cache_scenario_network.node[4].content_store 	hits[4] 	0
scalar one_cache_scenario_network.node[4].content_store 	misses[4] 	31109
scalar one_cache_scenario_network.node[4].content_store 	decision_yes[4] 	0
scalar one_cache_scenario_network.node[4].content_store 	decision_no[4] 	31109
scalar one_cache_scenario_network.client[0] 	hdistance[0] 	0.63236556816733
scalar one_cache_scenario_network.client[0] 	downloads[0] 	180519
scalar one_cache_scenario_network.client[0] 	avg_time[0] 	0
scalar one_cache_scenario_network.client[0] 	interests_sent[0] 	180519
