version 2
run General-7994-20140425-12:11:00-10386
attr D lce
attr F nrr
attr R lru
attr a 0.8
attr configname General
attr csize 30
attr ctlg 10^3
attr datetime 20140425-12:11:00
attr experiment General
attr inifile omnetpp.ini
attr iterationvars "$net=one_cache_scenario, $rep=20, $priceratiovalue=1, $a=0.8, $ctlg=10^3, $F=nrr, $ttl=1000, $D=lce, $R=lru, $csize=30"
attr iterationvars2 "$net=one_cache_scenario, $rep=20, $priceratiovalue=1, $a=0.8, $ctlg=10^3, $F=nrr, $ttl=1000, $D=lce, $R=lru, $csize=30, $repetition=0"
attr measurement "$net=one_cache_scenario, $rep=20, $priceratiovalue=1, $a=0.8, $ctlg=10^3, $F=nrr, $ttl=1000, $D=lce, $R=lru, $csize=30"
attr net one_cache_scenario
attr network networks.${net=one_cache_scenario}_network
attr priceratiovalue 1
attr processid 10386
attr rep 20
attr repetition 0
attr replication #0
attr resultdir results
attr runnumber 7994
attr seedset 20
attr ttl 1000

scalar . 	a 	0.8
scalar . 	csize 	30
scalar . 	priceratiovalue 	1
scalar . 	rep 	20
scalar . 	ttl 	1000
scalar one_cache_scenario_network.content_distribution 	repo-0 	3
scalar one_cache_scenario_network.content_distribution 	repo-1 	4
scalar one_cache_scenario_network.content_distribution 	client-0 	0
scalar one_cache_scenario_network.content_distribution 	repo-0_card 	474
scalar one_cache_scenario_network.content_distribution 	repo-1_card 	526
scalar one_cache_scenario_network.statistics 	p_hit 	0.072925109032158
scalar one_cache_scenario_network.statistics 	interests 	94513.4
scalar one_cache_scenario_network.statistics 	data 	58414
scalar one_cache_scenario_network.statistics 	hdistance 	1.6181432378378
scalar one_cache_scenario_network.statistics 	avg_time 	0
scalar one_cache_scenario_network.statistics 	downloads 	180497
scalar one_cache_scenario_network.statistics 	total_cost 	73017
scalar one_cache_scenario_network.statistics 	interests_sent 	180497
scalar one_cache_scenario_network.node[0].core_layer 	interests[0] 	180497
scalar one_cache_scenario_network.node[0].core_layer 	data[0] 	146035
scalar one_cache_scenario_network.node[0].core_layer 	repo_int[0] 	146035
scalar one_cache_scenario_network.node[0].content_store 	p_hit[0] 	0.19092838108113
scalar one_cache_scenario_network.node[0].content_store 	hits[0] 	34462
scalar one_cache_scenario_network.node[0].content_store 	misses[0] 	146035
scalar one_cache_scenario_network.node[0].content_store 	decision_yes[0] 	146035
scalar one_cache_scenario_network.node[0].content_store 	decision_no[0] 	0
scalar one_cache_scenario_network.node[1].core_layer 	interests[1] 	66862
scalar one_cache_scenario_network.node[1].core_layer 	data[1] 	66862
scalar one_cache_scenario_network.node[1].content_store 	p_hit[1] 	0
scalar one_cache_scenario_network.node[1].content_store 	hits[1] 	0
scalar one_cache_scenario_network.node[1].content_store 	misses[1] 	66862
scalar one_cache_scenario_network.node[1].content_store 	decision_yes[1] 	0
scalar one_cache_scenario_network.node[1].content_store 	decision_no[1] 	66862
scalar one_cache_scenario_network.node[2].core_layer 	interests[2] 	79173
scalar one_cache_scenario_network.node[2].core_layer 	data[2] 	79173
scalar one_cache_scenario_network.node[2].content_store 	p_hit[2] 	0
scalar one_cache_scenario_network.node[2].content_store 	hits[2] 	0
scalar one_cache_scenario_network.node[2].content_store 	misses[2] 	79173
scalar one_cache_scenario_network.node[2].content_store 	decision_yes[2] 	0
scalar one_cache_scenario_network.node[2].content_store 	decision_no[2] 	79173
scalar one_cache_scenario_network.node[3].core_layer 	interests[3] 	66862
scalar one_cache_scenario_network.node[3].core_layer 	repo_load[3] 	66862
scalar one_cache_scenario_network.node[3].core_layer 	data[3] 	0
scalar one_cache_scenario_network.node[3].content_store 	p_hit[3] 	0
scalar one_cache_scenario_network.node[3].content_store 	hits[3] 	0
scalar one_cache_scenario_network.node[3].content_store 	misses[3] 	66862
scalar one_cache_scenario_network.node[3].content_store 	decision_yes[3] 	0
scalar one_cache_scenario_network.node[3].content_store 	decision_no[3] 	66862
scalar one_cache_scenario_network.node[4].core_layer 	interests[4] 	79173
scalar one_cache_scenario_network.node[4].core_layer 	repo_load[4] 	79173
scalar one_cache_scenario_network.node[4].core_layer 	data[4] 	0
scalar one_cache_scenario_network.node[4].content_store 	p_hit[4] 	0
scalar one_cache_scenario_network.node[4].content_store 	hits[4] 	0
scalar one_cache_scenario_network.node[4].content_store 	misses[4] 	79173
scalar one_cache_scenario_network.node[4].content_store 	decision_yes[4] 	0
scalar one_cache_scenario_network.node[4].content_store 	decision_no[4] 	79173
scalar one_cache_scenario_network.client[0] 	hdistance[0] 	1.6181432378378
scalar one_cache_scenario_network.client[0] 	downloads[0] 	180497
scalar one_cache_scenario_network.client[0] 	avg_time[0] 	0
scalar one_cache_scenario_network.client[0] 	interests_sent[0] 	180497
