version 2
run General-23-20140626-16:53:51-16739
attr D costprobprodcorr0.01
attr F spr
attr R lru
attr a 1
attr configname General
attr csize 1e3
attr ctlg 1e5
attr datetime 20140626-16:53:51
attr experiment General
attr inifile omnetpp.ini
attr iterationvars "$net=abilene_cost, $rep=7, $priceratiovalue=10, $weights=0.333_0.333_0.334, $lambda=100, $a=1, $ctlg=1e5, $F=spr, $ttl=1000, $D=costprobprodcorr0.01, $xi=1, $R=lru, $csize=1e3, $pricebits=0, $mytime=1800"
attr iterationvars2 "$net=abilene_cost, $rep=7, $priceratiovalue=10, $weights=0.333_0.333_0.334, $lambda=100, $a=1, $ctlg=1e5, $F=spr, $ttl=1000, $D=costprobprodcorr0.01, $xi=1, $R=lru, $csize=1e3, $pricebits=0, $mytime=1800, $repetition=0"
attr lambda 100
attr measurement "$net=abilene_cost, $rep=7, $priceratiovalue=10, $weights=0.333_0.333_0.334, $lambda=100, $a=1, $ctlg=1e5, $F=spr, $ttl=1000, $D=costprobprodcorr0.01, $xi=1, $R=lru, $csize=1e3, $pricebits=0, $mytime=1800"
attr mytime 1800
attr net abilene_cost
attr network "networks.${net=geant_cost, abilene_cost}_network"
attr pricebits 0
attr priceratiovalue 10
attr processid 16739
attr rep 7
attr repetition 0
attr replication #0
attr resultdir results
attr runnumber 23
attr seedset 7
attr ttl 1000
attr weights 0.333_0.333_0.334
attr xi 1

scalar . 	a 	1
scalar . 	csize 	1e3
scalar . 	ctlg 	1e5
scalar . 	lambda 	100
scalar . 	mytime 	1800
scalar . 	pricebits 	0
scalar . 	priceratiovalue 	10
scalar . 	rep 	7
scalar . 	ttl 	1000
scalar . 	xi 	1
scalar abilene_cost_network.content_distribution 	repo-0 	11
scalar abilene_cost_network.content_distribution 	repo-1 	12
scalar abilene_cost_network.content_distribution 	repo-2 	13
scalar abilene_cost_network.content_distribution 	client-0 	5
scalar abilene_cost_network.content_distribution 	client-1 	0
scalar abilene_cost_network.content_distribution 	client-2 	9
scalar abilene_cost_network.content_distribution 	repo-0_card 	33104
scalar abilene_cost_network.content_distribution 	repo-1_card 	33508
scalar abilene_cost_network.content_distribution 	repo-2_card 	33388
scalar abilene_cost_network.statistics 	repo_popularity[0] 	0.34609068621501
scalar abilene_cost_network.statistics 	repo_popularity[1] 	0.29388785961082
scalar abilene_cost_network.statistics 	repo_popularity[2] 	0.36002145417417
scalar abilene_cost_network.statistics 	stabilization_time 	1983.1
scalar abilene_cost_network.node[1].face$o[4].channel 	price[1] 	0
scalar abilene_cost_network.node[1].face$o[4].channel 	represented_price[1] 	0
scalar abilene_cost_network.node[7].face$o[4].channel 	price[7] 	0
scalar abilene_cost_network.node[7].face$o[4].channel 	represented_price[7] 	0
scalar abilene_cost_network.node[10].face$o[4].channel 	price[10] 	0
scalar abilene_cost_network.node[10].face$o[4].channel 	represented_price[10] 	0
scalar abilene_cost_network.node[11].face$o[1].channel 	price[11] 	0
scalar abilene_cost_network.node[11].face$o[1].channel 	represented_price[11] 	0
scalar abilene_cost_network.node[12].face$o[1].channel 	price[12] 	1
scalar abilene_cost_network.node[12].face$o[1].channel 	represented_price[12] 	1
scalar abilene_cost_network.node[13].face$o[1].channel 	price[13] 	10
scalar abilene_cost_network.node[13].face$o[1].channel 	represented_price[13] 	10
scalar abilene_cost_network.statistics 	p_hit 	0.087163981091805
scalar abilene_cost_network.statistics 	interests 	146013.78571429
scalar abilene_cost_network.statistics 	data 	107453.85714286
scalar abilene_cost_network.statistics 	hdistance 	3.4951087154761
scalar abilene_cost_network.statistics 	avg_time 	0.01391227389
scalar abilene_cost_network.statistics 	downloads 	532880
scalar abilene_cost_network.statistics 	total_cost 	933714
scalar abilene_cost_network.statistics 	total_replicas 	100000
scalar abilene_cost_network.statistics 	inner_hit 	0.33436796276835
scalar abilene_cost_network.statistics 	interests_sent 	539826
scalar abilene_cost_network.node[0].core_layer 	interests[0] 	180309
scalar abilene_cost_network.node[0].core_layer 	data[0] 	162204
scalar abilene_cost_network.node[0].core_layer 	repo_int[0] 	354702
scalar abilene_cost_network.node[0].content_store 	p_hit[0] 	0.092341480458546
scalar abilene_cost_network.node[0].content_store 	hits[0] 	16650
scalar abilene_cost_network.node[0].content_store 	misses[0] 	163659
scalar abilene_cost_network.node[0].content_store 	decision_yes[0] 	928
scalar abilene_cost_network.node[0].content_store 	decision_no[0] 	161276
scalar abilene_cost_network.node[0].content_store 	decision_ratio[0] 	0.005721190599492
scalar abilene_cost_network.node[0].content_store 	correction_factor[0] 	0.0027225701061802
scalar abilene_cost_network.node[0].content_store 	xi[0] 	1
scalar abilene_cost_network.node[1].core_layer 	interests[1] 	253158
scalar abilene_cost_network.node[1].core_layer 	data[1] 	190908
scalar abilene_cost_network.node[1].content_store 	p_hit[1] 	0.24588991854889
scalar abilene_cost_network.node[1].content_store 	hits[1] 	62249
scalar abilene_cost_network.node[1].content_store 	misses[1] 	190909
scalar abilene_cost_network.node[1].content_store 	decision_yes[1] 	2361
scalar abilene_cost_network.node[1].content_store 	decision_no[1] 	188547
scalar abilene_cost_network.node[1].content_store 	decision_ratio[1] 	0.012367213526934
scalar abilene_cost_network.node[1].content_store 	correction_factor[1] 	0.0027225701061802
scalar abilene_cost_network.node[1].content_store 	xi[1] 	1
scalar abilene_cost_network.node[2].core_layer 	interests[2] 	154434
scalar abilene_cost_network.node[2].core_layer 	data[2] 	147294
scalar abilene_cost_network.node[2].content_store 	p_hit[2] 	0.046220391882617
scalar abilene_cost_network.node[2].content_store 	hits[2] 	7138
scalar abilene_cost_network.node[2].content_store 	misses[2] 	147296
scalar abilene_cost_network.node[2].content_store 	decision_yes[2] 	827
scalar abilene_cost_network.node[2].content_store 	decision_no[2] 	146467
scalar abilene_cost_network.node[2].content_store 	decision_ratio[2] 	0.0056146210979402
scalar abilene_cost_network.node[2].content_store 	correction_factor[2] 	0.0027225701061802
scalar abilene_cost_network.node[2].content_store 	xi[2] 	1
scalar abilene_cost_network.node[3].core_layer 	interests[3] 	157439
scalar abilene_cost_network.node[3].core_layer 	data[3] 	150037
scalar abilene_cost_network.node[3].content_store 	p_hit[3] 	0.046989627728835
scalar abilene_cost_network.node[3].content_store 	hits[3] 	7398
scalar abilene_cost_network.node[3].content_store 	misses[3] 	150041
scalar abilene_cost_network.node[3].content_store 	decision_yes[3] 	794
scalar abilene_cost_network.node[3].content_store 	decision_no[3] 	149243
scalar abilene_cost_network.node[3].content_store 	decision_ratio[3] 	0.0052920279664349
scalar abilene_cost_network.node[3].content_store 	correction_factor[3] 	0.0027225701061802
scalar abilene_cost_network.node[3].content_store 	xi[3] 	1
scalar abilene_cost_network.node[4].core_layer 	interests[4] 	115614
scalar abilene_cost_network.node[4].core_layer 	data[4] 	111705
scalar abilene_cost_network.node[4].content_store 	p_hit[4] 	0.033776186275019
scalar abilene_cost_network.node[4].content_store 	hits[4] 	3905
scalar abilene_cost_network.node[4].content_store 	misses[4] 	111709
scalar abilene_cost_network.node[4].content_store 	decision_yes[4] 	731
scalar abilene_cost_network.node[4].content_store 	decision_no[4] 	110974
scalar abilene_cost_network.node[4].content_store 	decision_ratio[4] 	0.0065440222013339
scalar abilene_cost_network.node[4].content_store 	correction_factor[4] 	0.0027225701061802
scalar abilene_cost_network.node[4].content_store 	xi[4] 	1
scalar abilene_cost_network.node[5].core_layer 	interests[5] 	179522
scalar abilene_cost_network.node[5].core_layer 	data[5] 	160580
scalar abilene_cost_network.node[5].content_store 	p_hit[5] 	0.083521796771426
scalar abilene_cost_network.node[5].content_store 	hits[5] 	14994
scalar abilene_cost_network.node[5].content_store 	misses[5] 	164528
scalar abilene_cost_network.node[5].content_store 	decision_yes[5] 	795
scalar abilene_cost_network.node[5].content_store 	decision_no[5] 	159785
scalar abilene_cost_network.node[5].content_store 	decision_ratio[5] 	0.0049508033379001
scalar abilene_cost_network.node[5].content_store 	correction_factor[5] 	0.0027225701061802
scalar abilene_cost_network.node[5].content_store 	xi[5] 	1
scalar abilene_cost_network.node[6].core_layer 	interests[6] 	44970
scalar abilene_cost_network.node[6].core_layer 	data[6] 	42178
scalar abilene_cost_network.node[6].content_store 	p_hit[6] 	0.062085835001112
scalar abilene_cost_network.node[6].content_store 	hits[6] 	2792
scalar abilene_cost_network.node[6].content_store 	misses[6] 	42178
scalar abilene_cost_network.node[6].content_store 	decision_yes[6] 	82
scalar abilene_cost_network.node[6].content_store 	decision_no[6] 	42096
scalar abilene_cost_network.node[6].content_store 	decision_ratio[6] 	0.0019441414955664
scalar abilene_cost_network.node[6].content_store 	correction_factor[6] 	0.0027225701061802
scalar abilene_cost_network.node[6].content_store 	xi[6] 	1
scalar abilene_cost_network.node[7].core_layer 	interests[7] 	132757
scalar abilene_cost_network.node[7].core_layer 	data[7] 	87744
scalar abilene_cost_network.node[7].content_store 	p_hit[7] 	0.33906310025083
scalar abilene_cost_network.node[7].content_store 	hits[7] 	45013
scalar abilene_cost_network.node[7].content_store 	misses[7] 	87744
scalar abilene_cost_network.node[7].content_store 	decision_yes[7] 	197
scalar abilene_cost_network.node[7].content_store 	decision_no[7] 	87547
scalar abilene_cost_network.node[7].content_store 	decision_ratio[7] 	0.0022451677607586
scalar abilene_cost_network.node[7].content_store 	correction_factor[7] 	0.0027225701061802
scalar abilene_cost_network.node[7].content_store 	xi[7] 	1
scalar abilene_cost_network.node[8].core_layer 	interests[8] 	50205
scalar abilene_cost_network.node[8].core_layer 	data[8] 	47854
scalar abilene_cost_network.node[8].content_store 	p_hit[8] 	0.046828005178767
scalar abilene_cost_network.node[8].content_store 	hits[8] 	2351
scalar abilene_cost_network.node[8].content_store 	misses[8] 	47854
scalar abilene_cost_network.node[8].content_store 	decision_yes[8] 	73
scalar abilene_cost_network.node[8].content_store 	decision_no[8] 	47781
scalar abilene_cost_network.node[8].content_store 	decision_ratio[8] 	0.0015254733146654
scalar abilene_cost_network.node[8].content_store 	correction_factor[8] 	0.0027225701061802
scalar abilene_cost_network.node[8].content_store 	xi[8] 	1
scalar abilene_cost_network.node[9].core_layer 	interests[9] 	179995
scalar abilene_cost_network.node[9].core_layer 	data[9] 	170803
scalar abilene_cost_network.node[9].content_store 	p_hit[9] 	0.042495624878469
scalar abilene_cost_network.node[9].content_store 	hits[9] 	7649
scalar abilene_cost_network.node[9].content_store 	misses[9] 	172346
scalar abilene_cost_network.node[9].content_store 	decision_yes[9] 	836
scalar abilene_cost_network.node[9].content_store 	decision_no[9] 	169967
scalar abilene_cost_network.node[9].content_store 	decision_ratio[9] 	0.0048945276136836
scalar abilene_cost_network.node[9].content_store 	correction_factor[9] 	0.0027225701061802
scalar abilene_cost_network.node[9].content_store 	xi[9] 	1
scalar abilene_cost_network.node[10].core_layer 	interests[10] 	241088
scalar abilene_cost_network.node[10].core_layer 	data[10] 	233047
scalar abilene_cost_network.node[10].content_store 	p_hit[10] 	0.033352966551633
scalar abilene_cost_network.node[10].content_store 	hits[10] 	8041
scalar abilene_cost_network.node[10].content_store 	misses[10] 	233047
scalar abilene_cost_network.node[10].content_store 	decision_yes[10] 	757
scalar abilene_cost_network.node[10].content_store 	decision_no[10] 	232290
scalar abilene_cost_network.node[10].content_store 	decision_ratio[10] 	0.0032482718078328
scalar abilene_cost_network.node[10].content_store 	correction_factor[10] 	0.0027225701061802
scalar abilene_cost_network.node[10].content_store 	xi[10] 	1
scalar abilene_cost_network.node[11].core_layer 	interests[11] 	182361
scalar abilene_cost_network.node[11].core_layer 	repo_load[11] 	182361
scalar abilene_cost_network.node[11].core_layer 	data[11] 	0
scalar abilene_cost_network.node[11].content_store 	p_hit[11] 	0
scalar abilene_cost_network.node[11].content_store 	hits[11] 	0
scalar abilene_cost_network.node[11].content_store 	misses[11] 	182361
scalar abilene_cost_network.node[11].content_store 	decision_yes[11] 	0
scalar abilene_cost_network.node[11].content_store 	decision_no[11] 	182361
scalar abilene_cost_network.node[11].content_store 	decision_ratio[11] 	0
scalar abilene_cost_network.node[12].core_layer 	interests[12] 	87744
scalar abilene_cost_network.node[12].core_layer 	repo_load[12] 	87744
scalar abilene_cost_network.node[12].core_layer 	data[12] 	0
scalar abilene_cost_network.node[12].content_store 	p_hit[12] 	0
scalar abilene_cost_network.node[12].content_store 	hits[12] 	0
scalar abilene_cost_network.node[12].content_store 	misses[12] 	87744
scalar abilene_cost_network.node[12].content_store 	decision_yes[12] 	0
scalar abilene_cost_network.node[12].content_store 	decision_no[12] 	87744
scalar abilene_cost_network.node[12].content_store 	decision_ratio[12] 	0
scalar abilene_cost_network.node[13].core_layer 	interests[13] 	84597
scalar abilene_cost_network.node[13].core_layer 	repo_load[13] 	84597
scalar abilene_cost_network.node[13].core_layer 	data[13] 	0
scalar abilene_cost_network.node[13].content_store 	p_hit[13] 	0
scalar abilene_cost_network.node[13].content_store 	hits[13] 	0
scalar abilene_cost_network.node[13].content_store 	misses[13] 	84597
scalar abilene_cost_network.node[13].content_store 	decision_yes[13] 	0
scalar abilene_cost_network.node[13].content_store 	decision_no[13] 	84597
scalar abilene_cost_network.node[13].content_store 	decision_ratio[13] 	0
scalar abilene_cost_network.client[0] 	hdistance[0] 	3.024891811198
scalar abilene_cost_network.client[0] 	downloads[0] 	178854
scalar abilene_cost_network.client[0] 	avg_time[0] 	0.012650800452
scalar abilene_cost_network.client[0] 	interests_sent[0] 	180309
scalar abilene_cost_network.client[5] 	hdistance[5] 	4.6182863066287
scalar abilene_cost_network.client[5] 	downloads[5] 	175574
scalar abilene_cost_network.client[5] 	avg_time[5] 	0.017839139546
scalar abilene_cost_network.client[5] 	interests_sent[5] 	179522
scalar abilene_cost_network.client[9] 	hdistance[9] 	2.8421480286015
scalar abilene_cost_network.client[9] 	downloads[9] 	178452
scalar abilene_cost_network.client[9] 	avg_time[9] 	0.011246881672
scalar abilene_cost_network.client[9] 	interests_sent[9] 	179995
