version 2
run General-47-20140626-18:08:58-10936
attr D costprobprodcorr0.01
attr F spr
attr R lru
attr a 1
attr configname General
attr csize 1e3
attr ctlg 1e5
attr datetime 20140626-18:08:58
attr experiment General
attr inifile omnetpp.ini
attr iterationvars "$net=abilene_cost, $rep=6, $priceratiovalue=10, $weights=0.333_0.333_0.334, $lambda=100, $a=1, $ctlg=1e5, $F=spr, $ttl=1000, $D=costprobprodcorr0.01, $xi=1, $R=lru, $csize=1e3, $pricebits=0, $mytime=1800"
attr iterationvars2 "$net=abilene_cost, $rep=6, $priceratiovalue=10, $weights=0.333_0.333_0.334, $lambda=100, $a=1, $ctlg=1e5, $F=spr, $ttl=1000, $D=costprobprodcorr0.01, $xi=1, $R=lru, $csize=1e3, $pricebits=0, $mytime=1800, $repetition=0"
attr lambda 100
attr measurement "$net=abilene_cost, $rep=6, $priceratiovalue=10, $weights=0.333_0.333_0.334, $lambda=100, $a=1, $ctlg=1e5, $F=spr, $ttl=1000, $D=costprobprodcorr0.01, $xi=1, $R=lru, $csize=1e3, $pricebits=0, $mytime=1800"
attr mytime 1800
attr net abilene_cost
attr network "networks.${net=geant_cost, abilene_cost}_network"
attr pricebits 0
attr priceratiovalue 10
attr processid 10936
attr rep 6
attr repetition 0
attr replication #0
attr resultdir results
attr runnumber 47
attr seedset 6
attr ttl 1000
attr weights 0.333_0.333_0.334
attr xi 1

scalar . 	a 	1
scalar . 	csize 	1e3
scalar . 	ctlg 	1e5
scalar . 	lambda 	100
scalar . 	mytime 	1800
scalar . 	pricebits 	0
scalar . 	priceratiovalue 	10
scalar . 	rep 	6
scalar . 	ttl 	1000
scalar . 	xi 	1
scalar abilene_cost_network.content_distribution 	repo-0 	11
scalar abilene_cost_network.content_distribution 	repo-1 	12
scalar abilene_cost_network.content_distribution 	repo-2 	13
scalar abilene_cost_network.content_distribution 	client-0 	5
scalar abilene_cost_network.content_distribution 	client-1 	0
scalar abilene_cost_network.content_distribution 	client-2 	9
scalar abilene_cost_network.content_distribution 	repo-0_card 	33436
scalar abilene_cost_network.content_distribution 	repo-1_card 	33143
scalar abilene_cost_network.content_distribution 	repo-2_card 	33421
scalar abilene_cost_network.statistics 	repo_popularity[0] 	0.39107817255936
scalar abilene_cost_network.statistics 	repo_popularity[1] 	0.30968687902184
scalar abilene_cost_network.statistics 	repo_popularity[2] 	0.2992349484188
scalar abilene_cost_network.statistics 	stabilization_time 	1926.9
scalar abilene_cost_network.node[1].face$o[4].channel 	price[1] 	0
scalar abilene_cost_network.node[1].face$o[4].channel 	represented_price[1] 	0
scalar abilene_cost_network.node[7].face$o[4].channel 	price[7] 	0
scalar abilene_cost_network.node[7].face$o[4].channel 	represented_price[7] 	0
scalar abilene_cost_network.node[10].face$o[4].channel 	price[10] 	0
scalar abilene_cost_network.node[10].face$o[4].channel 	represented_price[10] 	0
scalar abilene_cost_network.node[11].face$o[1].channel 	price[11] 	0
scalar abilene_cost_network.node[11].face$o[1].channel 	represented_price[11] 	0
scalar abilene_cost_network.node[12].face$o[1].channel 	price[12] 	1
scalar abilene_cost_network.node[12].face$o[1].channel 	represented_price[12] 	1
scalar abilene_cost_network.node[13].face$o[1].channel 	price[13] 	10
scalar abilene_cost_network.node[13].face$o[1].channel 	represented_price[13] 	10
scalar abilene_cost_network.statistics 	p_hit 	0.076517130968375
scalar abilene_cost_network.statistics 	interests 	145515.5
scalar abilene_cost_network.statistics 	data 	107023
scalar abilene_cost_network.statistics 	hdistance 	3.5280156603063
scalar abilene_cost_network.statistics 	avg_time 	0.013549889118
scalar abilene_cost_network.statistics 	downloads 	532156
scalar abilene_cost_network.statistics 	total_cost 	916562
scalar abilene_cost_network.statistics 	total_replicas 	100000
scalar abilene_cost_network.statistics 	inner_hit 	0.29292538278249
scalar abilene_cost_network.statistics 	interests_sent 	538889
scalar abilene_cost_network.node[0].core_layer 	interests[0] 	180025
scalar abilene_cost_network.node[0].core_layer 	data[0] 	158844
scalar abilene_cost_network.node[0].core_layer 	repo_int[0] 	376274
scalar abilene_cost_network.node[0].content_store 	p_hit[0] 	0.10982363560617
scalar abilene_cost_network.node[0].content_store 	hits[0] 	19771
scalar abilene_cost_network.node[0].content_store 	misses[0] 	160254
scalar abilene_cost_network.node[0].content_store 	decision_yes[0] 	890
scalar abilene_cost_network.node[0].content_store 	decision_no[0] 	157954
scalar abilene_cost_network.node[0].content_store 	decision_ratio[0] 	0.0056029815416383
scalar abilene_cost_network.node[0].content_store 	correction_factor[0] 	0.0027225701061802
scalar abilene_cost_network.node[0].content_store 	xi[0] 	1
scalar abilene_cost_network.node[1].core_layer 	interests[1] 	226378
scalar abilene_cost_network.node[1].core_layer 	data[1] 	193933
scalar abilene_cost_network.node[1].content_store 	p_hit[1] 	0.14331781356846
scalar abilene_cost_network.node[1].content_store 	hits[1] 	32444
scalar abilene_cost_network.node[1].content_store 	misses[1] 	193934
scalar abilene_cost_network.node[1].content_store 	decision_yes[1] 	2364
scalar abilene_cost_network.node[1].content_store 	decision_no[1] 	191569
scalar abilene_cost_network.node[1].content_store 	decision_ratio[1] 	0.012189776881707
scalar abilene_cost_network.node[1].content_store 	correction_factor[1] 	0.0027225701061802
scalar abilene_cost_network.node[1].content_store 	xi[1] 	1
scalar abilene_cost_network.node[2].core_layer 	interests[2] 	149708
scalar abilene_cost_network.node[2].core_layer 	data[2] 	143215
scalar abilene_cost_network.node[2].content_store 	p_hit[2] 	0.04336441606327
scalar abilene_cost_network.node[2].content_store 	hits[2] 	6492
scalar abilene_cost_network.node[2].content_store 	misses[2] 	143216
scalar abilene_cost_network.node[2].content_store 	decision_yes[2] 	762
scalar abilene_cost_network.node[2].content_store 	decision_no[2] 	142453
scalar abilene_cost_network.node[2].content_store 	decision_ratio[2] 	0.005320671717348
scalar abilene_cost_network.node[2].content_store 	correction_factor[2] 	0.0027225701061802
scalar abilene_cost_network.node[2].content_store 	xi[2] 	1
scalar abilene_cost_network.node[3].core_layer 	interests[3] 	152696
scalar abilene_cost_network.node[3].core_layer 	data[3] 	145830
scalar abilene_cost_network.node[3].content_store 	p_hit[3] 	0.044952061612616
scalar abilene_cost_network.node[3].content_store 	hits[3] 	6864
scalar abilene_cost_network.node[3].content_store 	misses[3] 	145832
scalar abilene_cost_network.node[3].content_store 	decision_yes[3] 	768
scalar abilene_cost_network.node[3].content_store 	decision_no[3] 	145062
scalar abilene_cost_network.node[3].content_store 	decision_ratio[3] 	0.005266406089282
scalar abilene_cost_network.node[3].content_store 	correction_factor[3] 	0.0027225701061802
scalar abilene_cost_network.node[3].content_store 	xi[3] 	1
scalar abilene_cost_network.node[4].core_layer 	interests[4] 	115937
scalar abilene_cost_network.node[4].core_layer 	data[4] 	111270
scalar abilene_cost_network.node[4].content_store 	p_hit[4] 	0.040237370295937
scalar abilene_cost_network.node[4].content_store 	hits[4] 	4665
scalar abilene_cost_network.node[4].content_store 	misses[4] 	111272
scalar abilene_cost_network.node[4].content_store 	decision_yes[4] 	699
scalar abilene_cost_network.node[4].content_store 	decision_no[4] 	110571
scalar abilene_cost_network.node[4].content_store 	decision_ratio[4] 	0.006282016716096
scalar abilene_cost_network.node[4].content_store 	correction_factor[4] 	0.0027225701061802
scalar abilene_cost_network.node[4].content_store 	xi[4] 	1
scalar abilene_cost_network.node[5].core_layer 	interests[5] 	179743
scalar abilene_cost_network.node[5].core_layer 	data[5] 	167024
scalar abilene_cost_network.node[5].content_store 	p_hit[5] 	0.048658362217166
scalar abilene_cost_network.node[5].content_store 	hits[5] 	8746
scalar abilene_cost_network.node[5].content_store 	misses[5] 	170997
scalar abilene_cost_network.node[5].content_store 	decision_yes[5] 	723
scalar abilene_cost_network.node[5].content_store 	decision_no[5] 	166301
scalar abilene_cost_network.node[5].content_store 	decision_ratio[5] 	0.0043287192259795
scalar abilene_cost_network.node[5].content_store 	correction_factor[5] 	0.0027225701061802
scalar abilene_cost_network.node[5].content_store 	xi[5] 	1
scalar abilene_cost_network.node[6].core_layer 	interests[6] 	51088
scalar abilene_cost_network.node[6].core_layer 	data[6] 	40008
scalar abilene_cost_network.node[6].content_store 	p_hit[6] 	0.2168806764798
scalar abilene_cost_network.node[6].content_store 	hits[6] 	11080
scalar abilene_cost_network.node[6].content_store 	misses[6] 	40008
scalar abilene_cost_network.node[6].content_store 	decision_yes[6] 	80
scalar abilene_cost_network.node[6].content_store 	decision_no[6] 	39928
scalar abilene_cost_network.node[6].content_store 	decision_ratio[6] 	0.001999600079984
scalar abilene_cost_network.node[6].content_store 	correction_factor[6] 	0.0027225701061802
scalar abilene_cost_network.node[6].content_store 	xi[6] 	1
scalar abilene_cost_network.node[7].core_layer 	interests[7] 	127976
scalar abilene_cost_network.node[7].core_layer 	data[7] 	87662
scalar abilene_cost_network.node[7].content_store 	p_hit[7] 	0.31501218978558
scalar abilene_cost_network.node[7].content_store 	hits[7] 	40314
scalar abilene_cost_network.node[7].content_store 	misses[7] 	87662
scalar abilene_cost_network.node[7].content_store 	decision_yes[7] 	227
scalar abilene_cost_network.node[7].content_store 	decision_no[7] 	87435
scalar abilene_cost_network.node[7].content_store 	decision_ratio[7] 	0.0025894914558189
scalar abilene_cost_network.node[7].content_store 	correction_factor[7] 	0.0027225701061802
scalar abilene_cost_network.node[7].content_store 	xi[7] 	1
scalar abilene_cost_network.node[8].core_layer 	interests[8] 	52357
scalar abilene_cost_network.node[8].core_layer 	data[8] 	47537
scalar abilene_cost_network.node[8].content_store 	p_hit[8] 	0.092079378115629
scalar abilene_cost_network.node[8].content_store 	hits[8] 	4821
scalar abilene_cost_network.node[8].content_store 	misses[8] 	47536
scalar abilene_cost_network.node[8].content_store 	decision_yes[8] 	80
scalar abilene_cost_network.node[8].content_store 	decision_no[8] 	47457
scalar abilene_cost_network.node[8].content_store 	decision_ratio[8] 	0.001682899636073
scalar abilene_cost_network.node[8].content_store 	correction_factor[8] 	0.0027225701061802
scalar abilene_cost_network.node[8].content_store 	xi[8] 	1
scalar abilene_cost_network.node[9].core_layer 	interests[9] 	179121
scalar abilene_cost_network.node[9].core_layer 	data[9] 	162157
scalar abilene_cost_network.node[9].content_store 	p_hit[9] 	0.087170125222615
scalar abilene_cost_network.node[9].content_store 	hits[9] 	15614
scalar abilene_cost_network.node[9].content_store 	misses[9] 	163507
scalar abilene_cost_network.node[9].content_store 	decision_yes[9] 	826
scalar abilene_cost_network.node[9].content_store 	decision_no[9] 	161331
scalar abilene_cost_network.node[9].content_store 	decision_ratio[9] 	0.0050938288202174
scalar abilene_cost_network.node[9].content_store 	correction_factor[9] 	0.0027225701061802
scalar abilene_cost_network.node[9].content_store 	xi[9] 	1
scalar abilene_cost_network.node[10].core_layer 	interests[10] 	245914
scalar abilene_cost_network.node[10].core_layer 	data[10] 	240842
scalar abilene_cost_network.node[10].content_store 	p_hit[10] 	0.020621030116219
scalar abilene_cost_network.node[10].content_store 	hits[10] 	5071
scalar abilene_cost_network.node[10].content_store 	misses[10] 	240843
scalar abilene_cost_network.node[10].content_store 	decision_yes[10] 	739
scalar abilene_cost_network.node[10].content_store 	decision_no[10] 	240103
scalar abilene_cost_network.node[10].content_store 	decision_ratio[10] 	0.003068401690735
scalar abilene_cost_network.node[10].content_store 	correction_factor[10] 	0.0027225701061802
scalar abilene_cost_network.node[10].content_store 	xi[10] 	1
scalar abilene_cost_network.node[11].core_layer 	interests[11] 	205722
scalar abilene_cost_network.node[11].core_layer 	repo_load[11] 	205722
scalar abilene_cost_network.node[11].core_layer 	data[11] 	0
scalar abilene_cost_network.node[11].content_store 	p_hit[11] 	0
scalar abilene_cost_network.node[11].content_store 	hits[11] 	0
scalar abilene_cost_network.node[11].content_store 	misses[11] 	205722
scalar abilene_cost_network.node[11].content_store 	decision_yes[11] 	0
scalar abilene_cost_network.node[11].content_store 	decision_no[11] 	205722
scalar abilene_cost_network.node[11].content_store 	decision_ratio[11] 	0
scalar abilene_cost_network.node[12].core_layer 	interests[12] 	87662
scalar abilene_cost_network.node[12].core_layer 	repo_load[12] 	87662
scalar abilene_cost_network.node[12].core_layer 	data[12] 	0
scalar abilene_cost_network.node[12].content_store 	p_hit[12] 	0
scalar abilene_cost_network.node[12].content_store 	hits[12] 	0
scalar abilene_cost_network.node[12].content_store 	misses[12] 	87662
scalar abilene_cost_network.node[12].content_store 	decision_yes[12] 	0
scalar abilene_cost_network.node[12].content_store 	decision_no[12] 	87662
scalar abilene_cost_network.node[12].content_store 	decision_ratio[12] 	0
scalar abilene_cost_network.node[13].core_layer 	interests[13] 	82890
scalar abilene_cost_network.node[13].core_layer 	repo_load[13] 	82890
scalar abilene_cost_network.node[13].core_layer 	data[13] 	0
scalar abilene_cost_network.node[13].content_store 	p_hit[13] 	0
scalar abilene_cost_network.node[13].content_store 	hits[13] 	0
scalar abilene_cost_network.node[13].content_store 	misses[13] 	82890
scalar abilene_cost_network.node[13].content_store 	decision_yes[13] 	0
scalar abilene_cost_network.node[13].content_store 	decision_no[13] 	82890
scalar abilene_cost_network.node[13].content_store 	decision_ratio[13] 	0
scalar abilene_cost_network.client[0] 	hdistance[0] 	3.0436581474121
scalar abilene_cost_network.client[0] 	downloads[0] 	178615
scalar abilene_cost_network.client[0] 	avg_time[0] 	0.012040654734
scalar abilene_cost_network.client[0] 	interests_sent[0] 	180025
scalar abilene_cost_network.client[5] 	hdistance[5] 	4.7508562325766
scalar abilene_cost_network.client[5] 	downloads[5] 	175770
scalar abilene_cost_network.client[5] 	avg_time[5] 	0.018220744686
scalar abilene_cost_network.client[5] 	interests_sent[5] 	179743
scalar abilene_cost_network.client[9] 	hdistance[9] 	2.7895326009304
scalar abilene_cost_network.client[9] 	downloads[9] 	177771
scalar abilene_cost_network.client[9] 	avg_time[9] 	0.010388267936
scalar abilene_cost_network.client[9] 	interests_sent[9] 	179121
