version 2
run General-0-20140505-15:33:18-14894
attr D costprob0.01
attr F nrr
attr R lru
attr a 0
attr configname General
attr csize 1
attr ctlg 1e3
attr datetime 20140505-15:33:18
attr experiment General
attr inifile omnetpp.ini
attr iterationvars "$net=one_cache_scenario_3_links, $rep=1, $priceratiovalue=10, $weights=0_0.5_0.5, $a=0, $ctlg=1e3, $F=nrr, $ttl=1000, $D=costprob0.01, $xi=1, $R=lru, $csize=1"
attr iterationvars2 "$net=one_cache_scenario_3_links, $rep=1, $priceratiovalue=10, $weights=0_0.5_0.5, $a=0, $ctlg=1e3, $F=nrr, $ttl=1000, $D=costprob0.01, $xi=1, $R=lru, $csize=1, $repetition=0"
attr measurement "$net=one_cache_scenario_3_links, $rep=1, $priceratiovalue=10, $weights=0_0.5_0.5, $a=0, $ctlg=1e3, $F=nrr, $ttl=1000, $D=costprob0.01, $xi=1, $R=lru, $csize=1"
attr net one_cache_scenario_3_links
attr network networks.${net=one_cache_scenario_3_links}_network
attr priceratiovalue 10
attr processid 14894
attr rep 1
attr repetition 0
attr replication #0
attr resultdir results
attr runnumber 0
attr seedset 1
attr ttl 1000
attr weights 0_0.5_0.5
attr xi 1

scalar . 	a 	0
scalar . 	csize 	1
scalar . 	ctlg 	1e3
scalar . 	priceratiovalue 	10
scalar . 	rep 	1
scalar . 	ttl 	1000
scalar . 	xi 	1
scalar one_cache_scenario_3_links_network.content_distribution 	repo-0 	4
scalar one_cache_scenario_3_links_network.content_distribution 	repo-1 	5
scalar one_cache_scenario_3_links_network.content_distribution 	repo-2 	6
scalar one_cache_scenario_3_links_network.content_distribution 	client-0 	0
scalar one_cache_scenario_3_links_network.content_distribution 	repo-0_card 	0
scalar one_cache_scenario_3_links_network.content_distribution 	repo-1_card 	498
scalar one_cache_scenario_3_links_network.content_distribution 	repo-2_card 	502
scalar one_cache_scenario_3_links_network.statistics 	p_hit 	0.00029201207479229
scalar one_cache_scenario_3_links_network.statistics 	interests 	76807
scalar one_cache_scenario_3_links_network.statistics 	data 	51189.714285714
scalar one_cache_scenario_3_links_network.statistics 	hdistance 	1.9982489502066
scalar one_cache_scenario_3_links_network.statistics 	avg_time 	0
scalar one_cache_scenario_3_links_network.statistics 	downloads 	179321
scalar one_cache_scenario_3_links_network.statistics 	total_cost 	988714
scalar one_cache_scenario_3_links_network.statistics 	total_replicas 	1000
scalar one_cache_scenario_3_links_network.statistics 	interests_sent 	179321
scalar one_cache_scenario_3_links_network.node[0].core_layer 	interests[0] 	179321
scalar one_cache_scenario_3_links_network.node[0].core_layer 	data[0] 	179164
scalar one_cache_scenario_3_links_network.node[0].core_layer 	repo_int[0] 	179164
scalar one_cache_scenario_3_links_network.node[0].content_store 	p_hit[0] 	0.00087552489669364
scalar one_cache_scenario_3_links_network.node[0].content_store 	hits[0] 	157
scalar one_cache_scenario_3_links_network.node[0].content_store 	misses[0] 	179164
scalar one_cache_scenario_3_links_network.node[0].content_store 	decision_yes[0] 	90117
scalar one_cache_scenario_3_links_network.node[0].content_store 	decision_no[0] 	89047
scalar one_cache_scenario_3_links_network.node[0].content_store 	decision_ratio[0] 	0.50298609095577
scalar one_cache_scenario_3_links_network.node[0].content_store 	correction_factor[0] 	0.0018181818181818
scalar one_cache_scenario_3_links_network.node[1].core_layer 	interests[1] 	0
scalar one_cache_scenario_3_links_network.node[1].core_layer 	data[1] 	0
scalar one_cache_scenario_3_links_network.node[1].content_store 	p_hit[1] 	-nan
scalar one_cache_scenario_3_links_network.node[1].content_store 	hits[1] 	0
scalar one_cache_scenario_3_links_network.node[1].content_store 	misses[1] 	0
scalar one_cache_scenario_3_links_network.node[1].content_store 	decision_yes[1] 	0
scalar one_cache_scenario_3_links_network.node[1].content_store 	decision_no[1] 	0
scalar one_cache_scenario_3_links_network.node[1].content_store 	decision_ratio[1] 	0
scalar one_cache_scenario_3_links_network.node[2].core_layer 	interests[2] 	89214
scalar one_cache_scenario_3_links_network.node[2].core_layer 	data[2] 	89214
scalar one_cache_scenario_3_links_network.node[2].content_store 	p_hit[2] 	0
scalar one_cache_scenario_3_links_network.node[2].content_store 	hits[2] 	0
scalar one_cache_scenario_3_links_network.node[2].content_store 	misses[2] 	89214
scalar one_cache_scenario_3_links_network.node[2].content_store 	decision_yes[2] 	0
scalar one_cache_scenario_3_links_network.node[2].content_store 	decision_no[2] 	89214
scalar one_cache_scenario_3_links_network.node[2].content_store 	decision_ratio[2] 	0
scalar one_cache_scenario_3_links_network.node[3].core_layer 	interests[3] 	89950
scalar one_cache_scenario_3_links_network.node[3].core_layer 	data[3] 	89950
scalar one_cache_scenario_3_links_network.node[3].content_store 	p_hit[3] 	0
scalar one_cache_scenario_3_links_network.node[3].content_store 	hits[3] 	0
scalar one_cache_scenario_3_links_network.node[3].content_store 	misses[3] 	89950
scalar one_cache_scenario_3_links_network.node[3].content_store 	decision_yes[3] 	0
scalar one_cache_scenario_3_links_network.node[3].content_store 	decision_no[3] 	89950
scalar one_cache_scenario_3_links_network.node[3].content_store 	decision_ratio[3] 	0
scalar one_cache_scenario_3_links_network.node[4].core_layer 	interests[4] 	0
scalar one_cache_scenario_3_links_network.node[4].core_layer 	data[4] 	0
scalar one_cache_scenario_3_links_network.node[4].content_store 	p_hit[4] 	-nan
scalar one_cache_scenario_3_links_network.node[4].content_store 	hits[4] 	0
scalar one_cache_scenario_3_links_network.node[4].content_store 	misses[4] 	0
scalar one_cache_scenario_3_links_network.node[4].content_store 	decision_yes[4] 	0
scalar one_cache_scenario_3_links_network.node[4].content_store 	decision_no[4] 	0
scalar one_cache_scenario_3_links_network.node[4].content_store 	decision_ratio[4] 	0
scalar one_cache_scenario_3_links_network.node[5].core_layer 	interests[5] 	89214
scalar one_cache_scenario_3_links_network.node[5].core_layer 	repo_load[5] 	89214
scalar one_cache_scenario_3_links_network.node[5].core_layer 	data[5] 	0
scalar one_cache_scenario_3_links_network.node[5].content_store 	p_hit[5] 	0
scalar one_cache_scenario_3_links_network.node[5].content_store 	hits[5] 	0
scalar one_cache_scenario_3_links_network.node[5].content_store 	misses[5] 	89214
scalar one_cache_scenario_3_links_network.node[5].content_store 	decision_yes[5] 	0
scalar one_cache_scenario_3_links_network.node[5].content_store 	decision_no[5] 	89214
scalar one_cache_scenario_3_links_network.node[5].content_store 	decision_ratio[5] 	0
scalar one_cache_scenario_3_links_network.node[6].core_layer 	interests[6] 	89950
scalar one_cache_scenario_3_links_network.node[6].core_layer 	repo_load[6] 	89950
scalar one_cache_scenario_3_links_network.node[6].core_layer 	data[6] 	0
scalar one_cache_scenario_3_links_network.node[6].content_store 	p_hit[6] 	0
scalar one_cache_scenario_3_links_network.node[6].content_store 	hits[6] 	0
scalar one_cache_scenario_3_links_network.node[6].content_store 	misses[6] 	89950
scalar one_cache_scenario_3_links_network.node[6].content_store 	decision_yes[6] 	0
scalar one_cache_scenario_3_links_network.node[6].content_store 	decision_no[6] 	89950
scalar one_cache_scenario_3_links_network.node[6].content_store 	decision_ratio[6] 	0
scalar one_cache_scenario_3_links_network.client[0] 	hdistance[0] 	1.9982489502066
scalar one_cache_scenario_3_links_network.client[0] 	downloads[0] 	179321
scalar one_cache_scenario_3_links_network.client[0] 	avg_time[0] 	0
scalar one_cache_scenario_3_links_network.client[0] 	interests_sent[0] 	179321
