version 2
run General-1348-20140502-03:38:21-10264
attr D costprob0.01
attr F nrr
attr R lru
attr a 1
attr configname General
attr csize 1e3
attr ctlg 1e5
attr datetime 20140502-03:38:21
attr experiment General
attr inifile omnetpp.ini
attr iterationvars "$net=three_caches_scenario_3_links, $rep=3, $priceratiovalue=2, $weights=0.2_0.4_0.4, $a=1, $ctlg=1e5, $F=nrr, $ttl=1000, $D=costprob0.01, $xi=1, $R=lru, $csize=1e3"
attr iterationvars2 "$net=three_caches_scenario_3_links, $rep=3, $priceratiovalue=2, $weights=0.2_0.4_0.4, $a=1, $ctlg=1e5, $F=nrr, $ttl=1000, $D=costprob0.01, $xi=1, $R=lru, $csize=1e3, $repetition=0"
attr measurement "$net=three_caches_scenario_3_links, $rep=3, $priceratiovalue=2, $weights=0.2_0.4_0.4, $a=1, $ctlg=1e5, $F=nrr, $ttl=1000, $D=costprob0.01, $xi=1, $R=lru, $csize=1e3"
attr net three_caches_scenario_3_links
attr network networks.${net=three_caches_scenario_3_links}_network
attr priceratiovalue 2
attr processid 10264
attr rep 3
attr repetition 0
attr replication #0
attr resultdir results
attr runnumber 1348
attr seedset 3
attr ttl 1000
attr weights 0.2_0.4_0.4
attr xi 1

scalar . 	a 	1
scalar . 	csize 	1e3
scalar . 	ctlg 	1e5
scalar . 	priceratiovalue 	2
scalar . 	rep 	3
scalar . 	ttl 	1000
scalar . 	xi 	1
scalar three_caches_scenario_3_links_network.content_distribution 	repo-0 	4
scalar three_caches_scenario_3_links_network.content_distribution 	repo-1 	5
scalar three_caches_scenario_3_links_network.content_distribution 	repo-2 	6
scalar three_caches_scenario_3_links_network.content_distribution 	client-0 	0
scalar three_caches_scenario_3_links_network.content_distribution 	repo-0_card 	20144
scalar three_caches_scenario_3_links_network.content_distribution 	repo-1_card 	39732
scalar three_caches_scenario_3_links_network.content_distribution 	repo-2_card 	40124
scalar three_caches_scenario_3_links_network.statistics 	p_hit 	0.18963496897967
scalar three_caches_scenario_3_links_network.statistics 	interests 	59615.285714286
scalar three_caches_scenario_3_links_network.statistics 	data 	33941.857142857
scalar three_caches_scenario_3_links_network.statistics 	hdistance 	1.6555304539435
scalar three_caches_scenario_3_links_network.statistics 	avg_time 	0
scalar three_caches_scenario_3_links_network.statistics 	downloads 	179714
scalar three_caches_scenario_3_links_network.statistics 	total_cost 	88546
scalar three_caches_scenario_3_links_network.statistics 	total_replicas 	100000
scalar three_caches_scenario_3_links_network.statistics 	interests_sent 	179714
scalar three_caches_scenario_3_links_network.node[0].core_layer 	interests[0] 	179714
scalar three_caches_scenario_3_links_network.node[0].core_layer 	data[0] 	137015
scalar three_caches_scenario_3_links_network.node[0].core_layer 	repo_int[0] 	100578
scalar three_caches_scenario_3_links_network.node[0].content_store 	p_hit[0] 	0.23759417741523
scalar three_caches_scenario_3_links_network.node[0].content_store 	hits[0] 	42699
scalar three_caches_scenario_3_links_network.node[0].content_store 	misses[0] 	137015
scalar three_caches_scenario_3_links_network.node[0].content_store 	decision_yes[0] 	759
scalar three_caches_scenario_3_links_network.node[0].content_store 	decision_no[0] 	136256
scalar three_caches_scenario_3_links_network.node[1].core_layer 	interests[1] 	40649
scalar three_caches_scenario_3_links_network.node[1].core_layer 	data[1] 	40649
scalar three_caches_scenario_3_links_network.node[1].content_store 	p_hit[1] 	0
scalar three_caches_scenario_3_links_network.node[1].content_store 	hits[1] 	0
scalar three_caches_scenario_3_links_network.node[1].content_store 	misses[1] 	40649
scalar three_caches_scenario_3_links_network.node[1].content_store 	decision_yes[1] 	0
scalar three_caches_scenario_3_links_network.node[1].content_store 	decision_no[1] 	40649
scalar three_caches_scenario_3_links_network.node[2].core_layer 	interests[2] 	49566
scalar three_caches_scenario_3_links_network.node[2].core_layer 	data[2] 	31312
scalar three_caches_scenario_3_links_network.node[2].content_store 	p_hit[2] 	0.36827664124602
scalar three_caches_scenario_3_links_network.node[2].content_store 	hits[2] 	18254
scalar three_caches_scenario_3_links_network.node[2].content_store 	misses[2] 	31312
scalar three_caches_scenario_3_links_network.node[2].content_store 	decision_yes[2] 	287
scalar three_caches_scenario_3_links_network.node[2].content_store 	decision_no[2] 	31025
scalar three_caches_scenario_3_links_network.node[3].core_layer 	interests[3] 	46800
scalar three_caches_scenario_3_links_network.node[3].core_layer 	data[3] 	28617
scalar three_caches_scenario_3_links_network.node[3].content_store 	p_hit[3] 	0.38852564102564
scalar three_caches_scenario_3_links_network.node[3].content_store 	hits[3] 	18183
scalar three_caches_scenario_3_links_network.node[3].content_store 	misses[3] 	28617
scalar three_caches_scenario_3_links_network.node[3].content_store 	decision_yes[3] 	496
scalar three_caches_scenario_3_links_network.node[3].content_store 	decision_no[3] 	28121
scalar three_caches_scenario_3_links_network.node[4].core_layer 	interests[4] 	40649
scalar three_caches_scenario_3_links_network.node[4].core_layer 	repo_load[4] 	40649
scalar three_caches_scenario_3_links_network.node[4].core_layer 	data[4] 	0
scalar three_caches_scenario_3_links_network.node[4].content_store 	p_hit[4] 	0
scalar three_caches_scenario_3_links_network.node[4].content_store 	hits[4] 	0
scalar three_caches_scenario_3_links_network.node[4].content_store 	misses[4] 	40649
scalar three_caches_scenario_3_links_network.node[4].content_store 	decision_yes[4] 	0
scalar three_caches_scenario_3_links_network.node[4].content_store 	decision_no[4] 	40649
scalar three_caches_scenario_3_links_network.node[5].core_layer 	interests[5] 	31312
scalar three_caches_scenario_3_links_network.node[5].core_layer 	repo_load[5] 	31312
scalar three_caches_scenario_3_links_network.node[5].core_layer 	data[5] 	0
scalar three_caches_scenario_3_links_network.node[5].content_store 	p_hit[5] 	0
scalar three_caches_scenario_3_links_network.node[5].content_store 	hits[5] 	0
scalar three_caches_scenario_3_links_network.node[5].content_store 	misses[5] 	31312
scalar three_caches_scenario_3_links_network.node[5].content_store 	decision_yes[5] 	0
scalar three_caches_scenario_3_links_network.node[5].content_store 	decision_no[5] 	31312
scalar three_caches_scenario_3_links_network.node[6].core_layer 	interests[6] 	28617
scalar three_caches_scenario_3_links_network.node[6].core_layer 	repo_load[6] 	28617
scalar three_caches_scenario_3_links_network.node[6].core_layer 	data[6] 	0
scalar three_caches_scenario_3_links_network.node[6].content_store 	p_hit[6] 	0
scalar three_caches_scenario_3_links_network.node[6].content_store 	hits[6] 	0
scalar three_caches_scenario_3_links_network.node[6].content_store 	misses[6] 	28617
scalar three_caches_scenario_3_links_network.node[6].content_store 	decision_yes[6] 	0
scalar three_caches_scenario_3_links_network.node[6].content_store 	decision_no[6] 	28617
scalar three_caches_scenario_3_links_network.client[0] 	hdistance[0] 	1.6555304539435
scalar three_caches_scenario_3_links_network.client[0] 	downloads[0] 	179714
scalar three_caches_scenario_3_links_network.client[0] 	avg_time[0] 	0
scalar three_caches_scenario_3_links_network.client[0] 	interests_sent[0] 	179714
