version 2
run General-6949-20140423-21:27:35-2052
attr D lce
attr F nrr
attr R lru
attr a 0
attr configname General
attr csize 2
attr ctlg 10^3
attr datetime 20140423-21:27:35
attr experiment General
attr inifile omnetpp.ini
attr iterationvars "$net=simple_scenario, $rep=20, $priceratiovalue=4, $a=0, $ctlg=10^3, $F=nrr, $ttl=1000, $D=lce, $R=lru, $csize=2"
attr iterationvars2 "$net=simple_scenario, $rep=20, $priceratiovalue=4, $a=0, $ctlg=10^3, $F=nrr, $ttl=1000, $D=lce, $R=lru, $csize=2, $repetition=0"
attr measurement "$net=simple_scenario, $rep=20, $priceratiovalue=4, $a=0, $ctlg=10^3, $F=nrr, $ttl=1000, $D=lce, $R=lru, $csize=2"
attr net simple_scenario
attr network networks.${net=simple_scenario}_network
attr priceratiovalue 4
attr processid 2052
attr rep 20
attr repetition 0
attr replication #0
attr resultdir results
attr runnumber 6949
attr seedset 20
attr ttl 1000

scalar . 	a 	0
scalar . 	csize 	2
scalar . 	priceratiovalue 	4
scalar . 	rep 	20
scalar . 	ttl 	1000
scalar simple_scenario_network.content_distribution 	repo-0 	3
scalar simple_scenario_network.content_distribution 	repo-1 	4
scalar simple_scenario_network.content_distribution 	client-0 	0
scalar simple_scenario_network.content_distribution 	repo-0_card 	484
scalar simple_scenario_network.content_distribution 	repo-1_card 	516
scalar simple_scenario_network.statistics 	p_hit 	0.0013035392109416
scalar simple_scenario_network.statistics 	interests 	107860.2
scalar simple_scenario_network.statistics 	data 	71836.2
scalar simple_scenario_network.statistics 	hdistance 	2.9902175783787
scalar simple_scenario_network.statistics 	avg_time 	0.00199966657
scalar simple_scenario_network.statistics 	downloads 	180119
scalar simple_scenario_network.statistics 	total_cost 	91463
scalar simple_scenario_network.node[0].core_layer 	interests[0] 	180120
scalar simple_scenario_network.node[0].core_layer 	data[0] 	179764
scalar simple_scenario_network.node[0].core_layer 	repo_int[0] 	179417
scalar simple_scenario_network.node[0].content_store 	p_hit[0] 	0.001976460137686
scalar simple_scenario_network.node[0].content_store 	hits[0] 	356
scalar simple_scenario_network.node[0].content_store 	misses[0] 	179764
scalar simple_scenario_network.node[1].core_layer 	interests[1] 	86967
scalar simple_scenario_network.node[1].core_layer 	data[1] 	86783
scalar simple_scenario_network.node[1].content_store 	p_hit[1] 	0.0021157450527211
scalar simple_scenario_network.node[1].content_store 	hits[1] 	184
scalar simple_scenario_network.node[1].content_store 	misses[1] 	86783
scalar simple_scenario_network.node[2].core_layer 	interests[2] 	92797
scalar simple_scenario_network.node[2].core_layer 	data[2] 	92634
scalar simple_scenario_network.node[2].content_store 	p_hit[2] 	0.0017565223013675
scalar simple_scenario_network.node[2].content_store 	hits[2] 	163
scalar simple_scenario_network.node[2].content_store 	misses[2] 	92634
scalar simple_scenario_network.node[3].core_layer 	interests[3] 	86783
scalar simple_scenario_network.node[3].core_layer 	repo_load[3] 	86783
scalar simple_scenario_network.node[3].core_layer 	data[3] 	0
scalar simple_scenario_network.node[3].content_store 	p_hit[3] 	0
scalar simple_scenario_network.node[3].content_store 	hits[3] 	0
scalar simple_scenario_network.node[3].content_store 	misses[3] 	86783
scalar simple_scenario_network.node[4].core_layer 	interests[4] 	92634
scalar simple_scenario_network.node[4].core_layer 	repo_load[4] 	92634
scalar simple_scenario_network.node[4].core_layer 	data[4] 	0
scalar simple_scenario_network.node[4].content_store 	p_hit[4] 	0
scalar simple_scenario_network.node[4].content_store 	hits[4] 	0
scalar simple_scenario_network.node[4].content_store 	misses[4] 	92634
scalar simple_scenario_network.client[0] 	hdistance[0] 	2.9902175783787
scalar simple_scenario_network.client[0] 	downloads[0] 	180119
scalar simple_scenario_network.client[0] 	avg_time[0] 	0.00199966657
