version 2
run General-2554-20140502-05:58:55-11508
attr D costprob0.005
attr F nrr
attr R lru
attr a 1.2
attr configname General
attr csize 1e3
attr ctlg 1e5
attr datetime 20140502-05:58:55
attr experiment General
attr inifile omnetpp.ini
attr iterationvars "$net=three_caches_scenario_3_links, $rep=5, $priceratiovalue=2, $weights=0.7_0.15_0.15, $a=1.2, $ctlg=1e5, $F=nrr, $ttl=1000, $D=costprob0.005, $xi=1, $R=lru, $csize=1e3"
attr iterationvars2 "$net=three_caches_scenario_3_links, $rep=5, $priceratiovalue=2, $weights=0.7_0.15_0.15, $a=1.2, $ctlg=1e5, $F=nrr, $ttl=1000, $D=costprob0.005, $xi=1, $R=lru, $csize=1e3, $repetition=0"
attr measurement "$net=three_caches_scenario_3_links, $rep=5, $priceratiovalue=2, $weights=0.7_0.15_0.15, $a=1.2, $ctlg=1e5, $F=nrr, $ttl=1000, $D=costprob0.005, $xi=1, $R=lru, $csize=1e3"
attr net three_caches_scenario_3_links
attr network networks.${net=three_caches_scenario_3_links}_network
attr priceratiovalue 2
attr processid 11508
attr rep 5
attr repetition 0
attr replication #0
attr resultdir results
attr runnumber 2554
attr seedset 5
attr ttl 1000
attr weights 0.7_0.15_0.15
attr xi 1

scalar . 	a 	1.2
scalar . 	csize 	1e3
scalar . 	ctlg 	1e5
scalar . 	priceratiovalue 	2
scalar . 	rep 	5
scalar . 	ttl 	1000
scalar . 	xi 	1
scalar three_caches_scenario_3_links_network.content_distribution 	repo-0 	4
scalar three_caches_scenario_3_links_network.content_distribution 	repo-1 	5
scalar three_caches_scenario_3_links_network.content_distribution 	repo-2 	6
scalar three_caches_scenario_3_links_network.content_distribution 	client-0 	0
scalar three_caches_scenario_3_links_network.content_distribution 	repo-0_card 	70036
scalar three_caches_scenario_3_links_network.content_distribution 	repo-1_card 	14984
scalar three_caches_scenario_3_links_network.content_distribution 	repo-2_card 	14980
scalar three_caches_scenario_3_links_network.statistics 	p_hit 	0.065727078457311
scalar three_caches_scenario_3_links_network.statistics 	interests 	70192.857142857
scalar three_caches_scenario_3_links_network.statistics 	data 	44404.142857143
scalar three_caches_scenario_3_links_network.statistics 	hdistance 	1.7575517529816
scalar three_caches_scenario_3_links_network.statistics 	avg_time 	0
scalar three_caches_scenario_3_links_network.statistics 	downloads 	180521
scalar three_caches_scenario_3_links_network.statistics 	total_cost 	9412
scalar three_caches_scenario_3_links_network.statistics 	total_replicas 	100000
scalar three_caches_scenario_3_links_network.statistics 	interests_sent 	180521
scalar three_caches_scenario_3_links_network.node[0].core_layer 	interests[0] 	180521
scalar three_caches_scenario_3_links_network.node[0].core_layer 	data[0] 	162603
scalar three_caches_scenario_3_links_network.node[0].core_layer 	repo_int[0] 	148226
scalar three_caches_scenario_3_links_network.node[0].content_store 	p_hit[0] 	0.099257150137657
scalar three_caches_scenario_3_links_network.node[0].content_store 	hits[0] 	17918
scalar three_caches_scenario_3_links_network.node[0].content_store 	misses[0] 	162603
scalar three_caches_scenario_3_links_network.node[0].content_store 	decision_yes[0] 	91
scalar three_caches_scenario_3_links_network.node[0].content_store 	decision_no[0] 	162512
scalar three_caches_scenario_3_links_network.node[1].core_layer 	interests[1] 	141780
scalar three_caches_scenario_3_links_network.node[1].core_layer 	data[1] 	141780
scalar three_caches_scenario_3_links_network.node[1].content_store 	p_hit[1] 	0
scalar three_caches_scenario_3_links_network.node[1].content_store 	hits[1] 	0
scalar three_caches_scenario_3_links_network.node[1].content_store 	misses[1] 	141780
scalar three_caches_scenario_3_links_network.node[1].content_store 	decision_yes[1] 	0
scalar three_caches_scenario_3_links_network.node[1].content_store 	decision_no[1] 	141780
scalar three_caches_scenario_3_links_network.node[2].core_layer 	interests[2] 	12278
scalar three_caches_scenario_3_links_network.node[2].core_layer 	data[2] 	3480
scalar three_caches_scenario_3_links_network.node[2].content_store 	p_hit[2] 	0.71656621599609
scalar three_caches_scenario_3_links_network.node[2].content_store 	hits[2] 	8798
scalar three_caches_scenario_3_links_network.node[2].content_store 	misses[2] 	3480
scalar three_caches_scenario_3_links_network.node[2].content_store 	decision_yes[2] 	35
scalar three_caches_scenario_3_links_network.node[2].content_store 	decision_no[2] 	3445
scalar three_caches_scenario_3_links_network.node[3].core_layer 	interests[3] 	8545
scalar three_caches_scenario_3_links_network.node[3].core_layer 	data[3] 	2966
scalar three_caches_scenario_3_links_network.node[3].content_store 	p_hit[3] 	0.65289643066121
scalar three_caches_scenario_3_links_network.node[3].content_store 	hits[3] 	5579
scalar three_caches_scenario_3_links_network.node[3].content_store 	misses[3] 	2966
scalar three_caches_scenario_3_links_network.node[3].content_store 	decision_yes[3] 	60
scalar three_caches_scenario_3_links_network.node[3].content_store 	decision_no[3] 	2906
scalar three_caches_scenario_3_links_network.node[4].core_layer 	interests[4] 	141780
scalar three_caches_scenario_3_links_network.node[4].core_layer 	repo_load[4] 	141780
scalar three_caches_scenario_3_links_network.node[4].core_layer 	data[4] 	0
scalar three_caches_scenario_3_links_network.node[4].content_store 	p_hit[4] 	0
scalar three_caches_scenario_3_links_network.node[4].content_store 	hits[4] 	0
scalar three_caches_scenario_3_links_network.node[4].content_store 	misses[4] 	141780
scalar three_caches_scenario_3_links_network.node[4].content_store 	decision_yes[4] 	0
scalar three_caches_scenario_3_links_network.node[4].content_store 	decision_no[4] 	141780
scalar three_caches_scenario_3_links_network.node[5].core_layer 	interests[5] 	3480
scalar three_caches_scenario_3_links_network.node[5].core_layer 	repo_load[5] 	3480
scalar three_caches_scenario_3_links_network.node[5].core_layer 	data[5] 	0
scalar three_caches_scenario_3_links_network.node[5].content_store 	p_hit[5] 	0
scalar three_caches_scenario_3_links_network.node[5].content_store 	hits[5] 	0
scalar three_caches_scenario_3_links_network.node[5].content_store 	misses[5] 	3480
scalar three_caches_scenario_3_links_network.node[5].content_store 	decision_yes[5] 	0
scalar three_caches_scenario_3_links_network.node[5].content_store 	decision_no[5] 	3480
scalar three_caches_scenario_3_links_network.node[6].core_layer 	interests[6] 	2966
scalar three_caches_scenario_3_links_network.node[6].core_layer 	repo_load[6] 	2966
scalar three_caches_scenario_3_links_network.node[6].core_layer 	data[6] 	0
scalar three_caches_scenario_3_links_network.node[6].content_store 	p_hit[6] 	0
scalar three_caches_scenario_3_links_network.node[6].content_store 	hits[6] 	0
scalar three_caches_scenario_3_links_network.node[6].content_store 	misses[6] 	2966
scalar three_caches_scenario_3_links_network.node[6].content_store 	decision_yes[6] 	0
scalar three_caches_scenario_3_links_network.node[6].content_store 	decision_no[6] 	2966
scalar three_caches_scenario_3_links_network.client[0] 	hdistance[0] 	1.7575517529816
scalar three_caches_scenario_3_links_network.client[0] 	downloads[0] 	180521
scalar three_caches_scenario_3_links_network.client[0] 	avg_time[0] 	0
scalar three_caches_scenario_3_links_network.client[0] 	interests_sent[0] 	180521
