version 2
run General-3022-20140425-04:10:44-14803
attr D costprob0.0002
attr F nrr
attr R lru
attr a 1.2
attr configname General
attr csize 30
attr ctlg 10^3
attr datetime 20140425-04:10:44
attr experiment General
attr inifile omnetpp.ini
attr iterationvars "$net=one_cache_scenario, $rep=8, $priceratiovalue=2, $a=1.2, $ctlg=10^3, $F=nrr, $ttl=1000, $D=costprob0.0002, $R=lru, $csize=30"
attr iterationvars2 "$net=one_cache_scenario, $rep=8, $priceratiovalue=2, $a=1.2, $ctlg=10^3, $F=nrr, $ttl=1000, $D=costprob0.0002, $R=lru, $csize=30, $repetition=0"
attr measurement "$net=one_cache_scenario, $rep=8, $priceratiovalue=2, $a=1.2, $ctlg=10^3, $F=nrr, $ttl=1000, $D=costprob0.0002, $R=lru, $csize=30"
attr net one_cache_scenario
attr network networks.${net=one_cache_scenario}_network
attr priceratiovalue 2
attr processid 14803
attr rep 8
attr repetition 0
attr replication #0
attr resultdir results
attr runnumber 3022
attr seedset 8
attr ttl 1000

scalar . 	a 	1.2
scalar . 	csize 	30
scalar . 	priceratiovalue 	2
scalar . 	rep 	8
scalar . 	ttl 	1000
scalar one_cache_scenario_network.content_distribution 	repo-0 	3
scalar one_cache_scenario_network.content_distribution 	repo-1 	4
scalar one_cache_scenario_network.content_distribution 	client-0 	0
scalar one_cache_scenario_network.content_distribution 	repo-0_card 	495
scalar one_cache_scenario_network.content_distribution 	repo-1_card 	505
scalar one_cache_scenario_network.statistics 	p_hit 	0.3359495449346
scalar one_cache_scenario_network.statistics 	interests 	64342.4
scalar one_cache_scenario_network.statistics 	data 	28484.4
scalar one_cache_scenario_network.statistics 	hdistance 	0.79436666852586
scalar one_cache_scenario_network.statistics 	avg_time 	0
scalar one_cache_scenario_network.statistics 	downloads 	179290
scalar one_cache_scenario_network.statistics 	total_cost 	32590
scalar one_cache_scenario_network.statistics 	interests_sent 	179290
scalar one_cache_scenario_network.node[0].core_layer 	interests[0] 	179290
scalar one_cache_scenario_network.node[0].core_layer 	data[0] 	71211
scalar one_cache_scenario_network.node[0].core_layer 	repo_int[0] 	71211
scalar one_cache_scenario_network.node[0].content_store 	p_hit[0] 	0.60281666573707
scalar one_cache_scenario_network.node[0].content_store 	hits[0] 	108079
scalar one_cache_scenario_network.node[0].content_store 	misses[0] 	71211
scalar one_cache_scenario_network.node[0].content_store 	decision_yes[0] 	5
scalar one_cache_scenario_network.node[0].content_store 	decision_no[0] 	71206
scalar one_cache_scenario_network.node[1].core_layer 	interests[1] 	44648
scalar one_cache_scenario_network.node[1].core_layer 	data[1] 	44648
scalar one_cache_scenario_network.node[1].content_store 	p_hit[1] 	0
scalar one_cache_scenario_network.node[1].content_store 	hits[1] 	0
scalar one_cache_scenario_network.node[1].content_store 	misses[1] 	44648
scalar one_cache_scenario_network.node[1].content_store 	decision_yes[1] 	0
scalar one_cache_scenario_network.node[1].content_store 	decision_no[1] 	44648
scalar one_cache_scenario_network.node[2].core_layer 	interests[2] 	26563
scalar one_cache_scenario_network.node[2].core_layer 	data[2] 	26563
scalar one_cache_scenario_network.node[2].content_store 	p_hit[2] 	0
scalar one_cache_scenario_network.node[2].content_store 	hits[2] 	0
scalar one_cache_scenario_network.node[2].content_store 	misses[2] 	26563
scalar one_cache_scenario_network.node[2].content_store 	decision_yes[2] 	0
scalar one_cache_scenario_network.node[2].content_store 	decision_no[2] 	26563
scalar one_cache_scenario_network.node[3].core_layer 	interests[3] 	44648
scalar one_cache_scenario_network.node[3].core_layer 	repo_load[3] 	44648
scalar one_cache_scenario_network.node[3].core_layer 	data[3] 	0
scalar one_cache_scenario_network.node[3].content_store 	p_hit[3] 	0
scalar one_cache_scenario_network.node[3].content_store 	hits[3] 	0
scalar one_cache_scenario_network.node[3].content_store 	misses[3] 	44648
scalar one_cache_scenario_network.node[3].content_store 	decision_yes[3] 	0
scalar one_cache_scenario_network.node[3].content_store 	decision_no[3] 	44648
scalar one_cache_scenario_network.node[4].core_layer 	interests[4] 	26563
scalar one_cache_scenario_network.node[4].core_layer 	repo_load[4] 	26563
scalar one_cache_scenario_network.node[4].core_layer 	data[4] 	0
scalar one_cache_scenario_network.node[4].content_store 	p_hit[4] 	0
scalar one_cache_scenario_network.node[4].content_store 	hits[4] 	0
scalar one_cache_scenario_network.node[4].content_store 	misses[4] 	26563
scalar one_cache_scenario_network.node[4].content_store 	decision_yes[4] 	0
scalar one_cache_scenario_network.node[4].content_store 	decision_no[4] 	26563
scalar one_cache_scenario_network.client[0] 	hdistance[0] 	0.79436666852586
scalar one_cache_scenario_network.client[0] 	downloads[0] 	179290
scalar one_cache_scenario_network.client[0] 	avg_time[0] 	0
scalar one_cache_scenario_network.client[0] 	interests_sent[0] 	179290
