version 2
run General-2602-20140425-03:30:33-14246
attr D costprob0.0002
attr F nrr
attr R lru
attr a 1.2
attr configname General
attr csize 30
attr ctlg 10^3
attr datetime 20140425-03:30:33
attr experiment General
attr inifile omnetpp.ini
attr iterationvars "$net=one_cache_scenario, $rep=7, $priceratiovalue=2, $a=1.2, $ctlg=10^3, $F=nrr, $ttl=1000, $D=costprob0.0002, $R=lru, $csize=30"
attr iterationvars2 "$net=one_cache_scenario, $rep=7, $priceratiovalue=2, $a=1.2, $ctlg=10^3, $F=nrr, $ttl=1000, $D=costprob0.0002, $R=lru, $csize=30, $repetition=0"
attr measurement "$net=one_cache_scenario, $rep=7, $priceratiovalue=2, $a=1.2, $ctlg=10^3, $F=nrr, $ttl=1000, $D=costprob0.0002, $R=lru, $csize=30"
attr net one_cache_scenario
attr network networks.${net=one_cache_scenario}_network
attr priceratiovalue 2
attr processid 14246
attr rep 7
attr repetition 0
attr replication #0
attr resultdir results
attr runnumber 2602
attr seedset 7
attr ttl 1000

scalar . 	a 	1.2
scalar . 	csize 	30
scalar . 	priceratiovalue 	2
scalar . 	rep 	7
scalar . 	ttl 	1000
scalar one_cache_scenario_network.content_distribution 	repo-0 	3
scalar one_cache_scenario_network.content_distribution 	repo-1 	4
scalar one_cache_scenario_network.content_distribution 	client-0 	0
scalar one_cache_scenario_network.content_distribution 	repo-0_card 	487
scalar one_cache_scenario_network.content_distribution 	repo-1_card 	513
scalar one_cache_scenario_network.statistics 	p_hit 	0.34627866148854
scalar one_cache_scenario_network.statistics 	interests 	63909.8
scalar one_cache_scenario_network.statistics 	data 	27852.8
scalar one_cache_scenario_network.statistics 	hdistance 	0.77246581801037
scalar one_cache_scenario_network.statistics 	avg_time 	0
scalar one_cache_scenario_network.statistics 	downloads 	180285
scalar one_cache_scenario_network.statistics 	total_cost 	33352
scalar one_cache_scenario_network.statistics 	interests_sent 	180285
scalar one_cache_scenario_network.node[0].core_layer 	interests[0] 	180285
scalar one_cache_scenario_network.node[0].core_layer 	data[0] 	69632
scalar one_cache_scenario_network.node[0].core_layer 	repo_int[0] 	69632
scalar one_cache_scenario_network.node[0].content_store 	p_hit[0] 	0.61376709099481
scalar one_cache_scenario_network.node[0].content_store 	hits[0] 	110653
scalar one_cache_scenario_network.node[0].content_store 	misses[0] 	69632
scalar one_cache_scenario_network.node[0].content_store 	decision_yes[0] 	6
scalar one_cache_scenario_network.node[0].content_store 	decision_no[0] 	69626
scalar one_cache_scenario_network.node[1].core_layer 	interests[1] 	39206
scalar one_cache_scenario_network.node[1].core_layer 	data[1] 	39206
scalar one_cache_scenario_network.node[1].content_store 	p_hit[1] 	0
scalar one_cache_scenario_network.node[1].content_store 	hits[1] 	0
scalar one_cache_scenario_network.node[1].content_store 	misses[1] 	39206
scalar one_cache_scenario_network.node[1].content_store 	decision_yes[1] 	0
scalar one_cache_scenario_network.node[1].content_store 	decision_no[1] 	39206
scalar one_cache_scenario_network.node[2].core_layer 	interests[2] 	30426
scalar one_cache_scenario_network.node[2].core_layer 	data[2] 	30426
scalar one_cache_scenario_network.node[2].content_store 	p_hit[2] 	0
scalar one_cache_scenario_network.node[2].content_store 	hits[2] 	0
scalar one_cache_scenario_network.node[2].content_store 	misses[2] 	30426
scalar one_cache_scenario_network.node[2].content_store 	decision_yes[2] 	0
scalar one_cache_scenario_network.node[2].content_store 	decision_no[2] 	30426
scalar one_cache_scenario_network.node[3].core_layer 	interests[3] 	39206
scalar one_cache_scenario_network.node[3].core_layer 	repo_load[3] 	39206
scalar one_cache_scenario_network.node[3].core_layer 	data[3] 	0
scalar one_cache_scenario_network.node[3].content_store 	p_hit[3] 	0
scalar one_cache_scenario_network.node[3].content_store 	hits[3] 	0
scalar one_cache_scenario_network.node[3].content_store 	misses[3] 	39206
scalar one_cache_scenario_network.node[3].content_store 	decision_yes[3] 	0
scalar one_cache_scenario_network.node[3].content_store 	decision_no[3] 	39206
scalar one_cache_scenario_network.node[4].core_layer 	interests[4] 	30426
scalar one_cache_scenario_network.node[4].core_layer 	repo_load[4] 	30426
scalar one_cache_scenario_network.node[4].core_layer 	data[4] 	0
scalar one_cache_scenario_network.node[4].content_store 	p_hit[4] 	0
scalar one_cache_scenario_network.node[4].content_store 	hits[4] 	0
scalar one_cache_scenario_network.node[4].content_store 	misses[4] 	30426
scalar one_cache_scenario_network.node[4].content_store 	decision_yes[4] 	0
scalar one_cache_scenario_network.node[4].content_store 	decision_no[4] 	30426
scalar one_cache_scenario_network.client[0] 	hdistance[0] 	0.77246581801037
scalar one_cache_scenario_network.client[0] 	downloads[0] 	180285
scalar one_cache_scenario_network.client[0] 	avg_time[0] 	0
scalar one_cache_scenario_network.client[0] 	interests_sent[0] 	180285
