version 2
run General-830-20140422-19:56:19-27579
attr D prob_cache
attr F nrr
attr R lru
attr a 0
attr configname General
attr csize 10
attr ctlg 10^3
attr datetime 20140422-19:56:19
attr experiment General
attr inifile omnetpp.ini
attr iterationvars "$net=simple_scenario, $rep=7, $priceratiovalue=10, $a=0, $ctlg=10^3, $F=nrr, $ttl=1000, $D=prob_cache, $R=lru, $csize=10"
attr iterationvars2 "$net=simple_scenario, $rep=7, $priceratiovalue=10, $a=0, $ctlg=10^3, $F=nrr, $ttl=1000, $D=prob_cache, $R=lru, $csize=10, $repetition=0"
attr measurement "$net=simple_scenario, $rep=7, $priceratiovalue=10, $a=0, $ctlg=10^3, $F=nrr, $ttl=1000, $D=prob_cache, $R=lru, $csize=10"
attr net simple_scenario
attr network networks.${net=simple_scenario}_network
attr priceratiovalue 10
attr processid 27579
attr rep 7
attr repetition 0
attr replication #0
attr resultdir results
attr runnumber 830
attr seedset 7
attr ttl 1000

scalar . 	a 	0
scalar . 	csize 	10
scalar . 	priceratiovalue 	10
scalar . 	rep 	7
scalar . 	ttl 	1000
scalar simple_scenario_network.content_distribution 	repo-0 	3
scalar simple_scenario_network.content_distribution 	repo-1 	4
scalar simple_scenario_network.content_distribution 	client-0 	0
scalar simple_scenario_network.content_distribution 	repo-0_card 	505
scalar simple_scenario_network.content_distribution 	repo-1_card 	495
scalar simple_scenario_network.statistics 	p_hit 	0.0094899614587534
scalar simple_scenario_network.statistics 	interests 	106639
scalar simple_scenario_network.statistics 	data 	70639.4
scalar simple_scenario_network.statistics 	hdistance 	2.9341159346215
scalar simple_scenario_network.statistics 	avg_time 	0.00199979706
scalar simple_scenario_network.statistics 	downloads 	179998
scalar simple_scenario_network.statistics 	total_cost 	86679
scalar simple_scenario_network.node[0].core_layer 	interests[0] 	179998
scalar simple_scenario_network.node[0].core_layer 	data[0] 	178259
scalar simple_scenario_network.node[0].core_layer 	repo_int[0] 	174938
scalar simple_scenario_network.node[0].content_store 	p_hit[0] 	0.0096612184579829
scalar simple_scenario_network.node[0].content_store 	hits[0] 	1739
scalar simple_scenario_network.node[0].content_store 	misses[0] 	178259
scalar simple_scenario_network.node[1].core_layer 	interests[1] 	90091
scalar simple_scenario_network.node[1].core_layer 	data[1] 	88433
scalar simple_scenario_network.node[1].content_store 	p_hit[1] 	0.018403614123497
scalar simple_scenario_network.node[1].content_store 	hits[1] 	1658
scalar simple_scenario_network.node[1].content_store 	misses[1] 	88433
scalar simple_scenario_network.node[2].core_layer 	interests[2] 	88168
scalar simple_scenario_network.node[2].core_layer 	data[2] 	86505
scalar simple_scenario_network.node[2].content_store 	p_hit[2] 	0.018861718537338
scalar simple_scenario_network.node[2].content_store 	hits[2] 	1663
scalar simple_scenario_network.node[2].content_store 	misses[2] 	86505
scalar simple_scenario_network.node[3].core_layer 	interests[3] 	88433
scalar simple_scenario_network.node[3].core_layer 	repo_load[3] 	88433
scalar simple_scenario_network.node[3].core_layer 	data[3] 	0
scalar simple_scenario_network.node[3].content_store 	p_hit[3] 	0
scalar simple_scenario_network.node[3].content_store 	hits[3] 	0
scalar simple_scenario_network.node[3].content_store 	misses[3] 	88433
scalar simple_scenario_network.node[4].core_layer 	interests[4] 	86505
scalar simple_scenario_network.node[4].core_layer 	repo_load[4] 	86505
scalar simple_scenario_network.node[4].core_layer 	data[4] 	0
scalar simple_scenario_network.node[4].content_store 	p_hit[4] 	0
scalar simple_scenario_network.node[4].content_store 	hits[4] 	0
scalar simple_scenario_network.node[4].content_store 	misses[4] 	86505
scalar simple_scenario_network.client[0] 	hdistance[0] 	2.9341159346215
scalar simple_scenario_network.client[0] 	downloads[0] 	179998
scalar simple_scenario_network.client[0] 	avg_time[0] 	0.00199979706
