version 2
run General-0-20140502-15:51:06-18113
attr D fix0.01
attr F nrr
attr R lru
attr a 1
attr configname General
attr csize 1e3
attr ctlg 1e5
attr datetime 20140502-15:51:06
attr experiment General
attr inifile omnetpp.ini
attr iterationvars "$net=four_caches_scenario_3_links, $rep=1, $priceratiovalue=10, $weights=0.7_0.15_0.15, $a=1, $ctlg=1e5, $F=nrr, $ttl=1000, $D=fix0.01, $xi=1, $R=lru, $csize=1e3"
attr iterationvars2 "$net=four_caches_scenario_3_links, $rep=1, $priceratiovalue=10, $weights=0.7_0.15_0.15, $a=1, $ctlg=1e5, $F=nrr, $ttl=1000, $D=fix0.01, $xi=1, $R=lru, $csize=1e3, $repetition=0"
attr measurement "$net=four_caches_scenario_3_links, $rep=1, $priceratiovalue=10, $weights=0.7_0.15_0.15, $a=1, $ctlg=1e5, $F=nrr, $ttl=1000, $D=fix0.01, $xi=1, $R=lru, $csize=1e3"
attr net four_caches_scenario_3_links
attr network networks.${net=four_caches_scenario_3_links}_network
attr priceratiovalue 10
attr processid 18113
attr rep 1
attr repetition 0
attr replication #0
attr resultdir results
attr runnumber 0
attr seedset 1
attr ttl 1000
attr weights 0.7_0.15_0.15
attr xi 1

scalar . 	a 	1
scalar . 	csize 	1e3
scalar . 	ctlg 	1e5
scalar . 	priceratiovalue 	10
scalar . 	rep 	1
scalar . 	ttl 	1000
scalar . 	xi 	1
scalar four_caches_scenario_3_links_network.content_distribution 	repo-0 	4
scalar four_caches_scenario_3_links_network.content_distribution 	repo-1 	5
scalar four_caches_scenario_3_links_network.content_distribution 	repo-2 	6
scalar four_caches_scenario_3_links_network.content_distribution 	client-0 	0
scalar four_caches_scenario_3_links_network.content_distribution 	repo-0_card 	70018
scalar four_caches_scenario_3_links_network.content_distribution 	repo-1_card 	15023
scalar four_caches_scenario_3_links_network.content_distribution 	repo-2_card 	14959
scalar four_caches_scenario_3_links_network.statistics 	p_hit 	0.27824621525416
scalar four_caches_scenario_3_links_network.statistics 	interests 	50607.285714286
scalar four_caches_scenario_3_links_network.statistics 	data 	24917.285714286
scalar four_caches_scenario_3_links_network.statistics 	hdistance 	1.4217983651226
scalar four_caches_scenario_3_links_network.statistics 	avg_time 	0
scalar four_caches_scenario_3_links_network.statistics 	downloads 	179830
scalar four_caches_scenario_3_links_network.statistics 	total_cost 	123508
scalar four_caches_scenario_3_links_network.statistics 	total_replicas 	100000
scalar four_caches_scenario_3_links_network.statistics 	interests_sent 	179830
scalar four_caches_scenario_3_links_network.node[0].core_layer 	interests[0] 	179830
scalar four_caches_scenario_3_links_network.node[0].core_layer 	data[0] 	93160
scalar four_caches_scenario_3_links_network.node[0].core_layer 	repo_int[0] 	81261
scalar four_caches_scenario_3_links_network.node[0].content_store 	p_hit[0] 	0.48195517989212
scalar four_caches_scenario_3_links_network.node[0].content_store 	hits[0] 	86670
scalar four_caches_scenario_3_links_network.node[0].content_store 	misses[0] 	93160
scalar four_caches_scenario_3_links_network.node[0].content_store 	decision_yes[0] 	930
scalar four_caches_scenario_3_links_network.node[0].content_store 	decision_no[0] 	92230
scalar four_caches_scenario_3_links_network.node[1].core_layer 	interests[1] 	64834
scalar four_caches_scenario_3_links_network.node[1].core_layer 	data[1] 	58571
scalar four_caches_scenario_3_links_network.node[1].content_store 	p_hit[1] 	0.096600549094611
scalar four_caches_scenario_3_links_network.node[1].content_store 	hits[1] 	6263
scalar four_caches_scenario_3_links_network.node[1].content_store 	misses[1] 	58571
scalar four_caches_scenario_3_links_network.node[1].content_store 	decision_yes[1] 	618
scalar four_caches_scenario_3_links_network.node[1].content_store 	decision_no[1] 	57953
scalar four_caches_scenario_3_links_network.node[2].core_layer 	interests[2] 	14452
scalar four_caches_scenario_3_links_network.node[2].core_layer 	data[2] 	11488
scalar four_caches_scenario_3_links_network.node[2].content_store 	p_hit[2] 	0.20509272073069
scalar four_caches_scenario_3_links_network.node[2].content_store 	hits[2] 	2964
scalar four_caches_scenario_3_links_network.node[2].content_store 	misses[2] 	11488
scalar four_caches_scenario_3_links_network.node[2].content_store 	decision_yes[2] 	110
scalar four_caches_scenario_3_links_network.node[2].content_store 	decision_no[2] 	11378
scalar four_caches_scenario_3_links_network.node[3].core_layer 	interests[3] 	13874
scalar four_caches_scenario_3_links_network.node[3].core_layer 	data[3] 	11202
scalar four_caches_scenario_3_links_network.node[3].content_store 	p_hit[3] 	0.19259045696987
scalar four_caches_scenario_3_links_network.node[3].content_store 	hits[3] 	2672
scalar four_caches_scenario_3_links_network.node[3].content_store 	misses[3] 	11202
scalar four_caches_scenario_3_links_network.node[3].content_store 	decision_yes[3] 	122
scalar four_caches_scenario_3_links_network.node[3].content_store 	decision_no[3] 	11080
scalar four_caches_scenario_3_links_network.node[4].core_layer 	interests[4] 	58571
scalar four_caches_scenario_3_links_network.node[4].core_layer 	repo_load[4] 	58571
scalar four_caches_scenario_3_links_network.node[4].core_layer 	data[4] 	0
scalar four_caches_scenario_3_links_network.node[4].content_store 	p_hit[4] 	0
scalar four_caches_scenario_3_links_network.node[4].content_store 	hits[4] 	0
scalar four_caches_scenario_3_links_network.node[4].content_store 	misses[4] 	58571
scalar four_caches_scenario_3_links_network.node[4].content_store 	decision_yes[4] 	0
scalar four_caches_scenario_3_links_network.node[4].content_store 	decision_no[4] 	58571
scalar four_caches_scenario_3_links_network.node[5].core_layer 	interests[5] 	11488
scalar four_caches_scenario_3_links_network.node[5].core_layer 	repo_load[5] 	11488
scalar four_caches_scenario_3_links_network.node[5].core_layer 	data[5] 	0
scalar four_caches_scenario_3_links_network.node[5].content_store 	p_hit[5] 	0
scalar four_caches_scenario_3_links_network.node[5].content_store 	hits[5] 	0
scalar four_caches_scenario_3_links_network.node[5].content_store 	misses[5] 	11488
scalar four_caches_scenario_3_links_network.node[5].content_store 	decision_yes[5] 	0
scalar four_caches_scenario_3_links_network.node[5].content_store 	decision_no[5] 	11488
scalar four_caches_scenario_3_links_network.node[6].core_layer 	interests[6] 	11202
scalar four_caches_scenario_3_links_network.node[6].core_layer 	repo_load[6] 	11202
scalar four_caches_scenario_3_links_network.node[6].core_layer 	data[6] 	0
scalar four_caches_scenario_3_links_network.node[6].content_store 	p_hit[6] 	0
scalar four_caches_scenario_3_links_network.node[6].content_store 	hits[6] 	0
scalar four_caches_scenario_3_links_network.node[6].content_store 	misses[6] 	11202
scalar four_caches_scenario_3_links_network.node[6].content_store 	decision_yes[6] 	0
scalar four_caches_scenario_3_links_network.node[6].content_store 	decision_no[6] 	11202
scalar four_caches_scenario_3_links_network.client[0] 	hdistance[0] 	1.4217983651226
scalar four_caches_scenario_3_links_network.client[0] 	downloads[0] 	179830
scalar four_caches_scenario_3_links_network.client[0] 	avg_time[0] 	0
scalar four_caches_scenario_3_links_network.client[0] 	interests_sent[0] 	179830
