version 2
run General-1089-20140423-18:59:29-26937
attr D costprob0.1
attr F nrr
attr R lru
attr a 0
attr configname General
attr csize 2
attr ctlg 10^3
attr datetime 20140423-18:59:29
attr experiment General
attr inifile omnetpp.ini
attr iterationvars "$net=simple_scenario, $rep=4, $priceratiovalue=1, $a=0, $ctlg=10^3, $F=nrr, $ttl=1000, $D=costprob0.1, $R=lru, $csize=2"
attr iterationvars2 "$net=simple_scenario, $rep=4, $priceratiovalue=1, $a=0, $ctlg=10^3, $F=nrr, $ttl=1000, $D=costprob0.1, $R=lru, $csize=2, $repetition=0"
attr measurement "$net=simple_scenario, $rep=4, $priceratiovalue=1, $a=0, $ctlg=10^3, $F=nrr, $ttl=1000, $D=costprob0.1, $R=lru, $csize=2"
attr net simple_scenario
attr network networks.${net=simple_scenario}_network
attr priceratiovalue 1
attr processid 26937
attr rep 4
attr repetition 0
attr replication #0
attr resultdir results
attr runnumber 1089
attr seedset 4
attr ttl 1000

scalar . 	a 	0
scalar . 	csize 	2
scalar . 	priceratiovalue 	1
scalar . 	rep 	4
scalar . 	ttl 	1000
scalar simple_scenario_network.content_distribution 	repo-0 	3
scalar simple_scenario_network.content_distribution 	repo-1 	4
scalar simple_scenario_network.content_distribution 	client-0 	0
scalar simple_scenario_network.content_distribution 	repo-0_card 	490
scalar simple_scenario_network.content_distribution 	repo-1_card 	510
scalar simple_scenario_network.statistics 	p_hit 	0.0020338156487429
scalar simple_scenario_network.statistics 	interests 	108269.4
scalar simple_scenario_network.statistics 	data 	72082.8
scalar simple_scenario_network.statistics 	hdistance 	2.9858898045133
scalar simple_scenario_network.statistics 	avg_time 	0.001999766469
scalar simple_scenario_network.statistics 	downloads 	180933
scalar simple_scenario_network.statistics 	total_cost 	89915
scalar simple_scenario_network.node[0].core_layer 	interests[0] 	180933
scalar simple_scenario_network.node[0].core_layer 	data[0] 	180582
scalar simple_scenario_network.node[0].core_layer 	repo_int[0] 	179832
scalar simple_scenario_network.node[0].content_store 	p_hit[0] 	0.0019399446203843
scalar simple_scenario_network.node[0].content_store 	hits[0] 	351
scalar simple_scenario_network.node[0].content_store 	misses[0] 	180582
scalar simple_scenario_network.node[1].core_layer 	interests[1] 	88749
scalar simple_scenario_network.node[1].core_layer 	data[1] 	88399
scalar simple_scenario_network.node[1].content_store 	p_hit[1] 	0.0039437064079595
scalar simple_scenario_network.node[1].content_store 	hits[1] 	350
scalar simple_scenario_network.node[1].content_store 	misses[1] 	88399
scalar simple_scenario_network.node[2].core_layer 	interests[2] 	91833
scalar simple_scenario_network.node[2].core_layer 	data[2] 	91433
scalar simple_scenario_network.node[2].content_store 	p_hit[2] 	0.0043557326886849
scalar simple_scenario_network.node[2].content_store 	hits[2] 	400
scalar simple_scenario_network.node[2].content_store 	misses[2] 	91433
scalar simple_scenario_network.node[3].core_layer 	interests[3] 	88399
scalar simple_scenario_network.node[3].core_layer 	repo_load[3] 	88399
scalar simple_scenario_network.node[3].core_layer 	data[3] 	0
scalar simple_scenario_network.node[3].content_store 	p_hit[3] 	0
scalar simple_scenario_network.node[3].content_store 	hits[3] 	0
scalar simple_scenario_network.node[3].content_store 	misses[3] 	88399
scalar simple_scenario_network.node[4].core_layer 	interests[4] 	91433
scalar simple_scenario_network.node[4].core_layer 	repo_load[4] 	91433
scalar simple_scenario_network.node[4].core_layer 	data[4] 	0
scalar simple_scenario_network.node[4].content_store 	p_hit[4] 	0
scalar simple_scenario_network.node[4].content_store 	hits[4] 	0
scalar simple_scenario_network.node[4].content_store 	misses[4] 	91433
scalar simple_scenario_network.client[0] 	hdistance[0] 	2.9858898045133
scalar simple_scenario_network.client[0] 	downloads[0] 	180933
scalar simple_scenario_network.client[0] 	avg_time[0] 	0.001999766469
