version 2
run General-4329-20140423-20:21:25-31446
attr D costprob0.1
attr F nrr
attr R lru
attr a 0
attr configname General
attr csize 2
attr ctlg 10^3
attr datetime 20140423-20:21:25
attr experiment General
attr inifile omnetpp.ini
attr iterationvars "$net=simple_scenario, $rep=13, $priceratiovalue=1, $a=0, $ctlg=10^3, $F=nrr, $ttl=1000, $D=costprob0.1, $R=lru, $csize=2"
attr iterationvars2 "$net=simple_scenario, $rep=13, $priceratiovalue=1, $a=0, $ctlg=10^3, $F=nrr, $ttl=1000, $D=costprob0.1, $R=lru, $csize=2, $repetition=0"
attr measurement "$net=simple_scenario, $rep=13, $priceratiovalue=1, $a=0, $ctlg=10^3, $F=nrr, $ttl=1000, $D=costprob0.1, $R=lru, $csize=2"
attr net simple_scenario
attr network networks.${net=simple_scenario}_network
attr priceratiovalue 1
attr processid 31446
attr rep 13
attr repetition 0
attr replication #0
attr resultdir results
attr runnumber 4329
attr seedset 13
attr ttl 1000

scalar . 	a 	0
scalar . 	csize 	2
scalar . 	priceratiovalue 	1
scalar . 	rep 	13
scalar . 	ttl 	1000
scalar simple_scenario_network.content_distribution 	repo-0 	3
scalar simple_scenario_network.content_distribution 	repo-1 	4
scalar simple_scenario_network.content_distribution 	client-0 	0
scalar simple_scenario_network.content_distribution 	repo-0_card 	509
scalar simple_scenario_network.content_distribution 	repo-1_card 	491
scalar simple_scenario_network.statistics 	p_hit 	0.0018913927680728
scalar simple_scenario_network.statistics 	interests 	107539.8
scalar simple_scenario_network.statistics 	data 	71601.2
scalar simple_scenario_network.statistics 	hdistance 	2.9866605822152
scalar simple_scenario_network.statistics 	avg_time 	0.001999742289
scalar simple_scenario_network.statistics 	downloads 	179693
scalar simple_scenario_network.statistics 	total_cost 	89338
scalar simple_scenario_network.node[0].core_layer 	interests[0] 	179693
scalar simple_scenario_network.node[0].core_layer 	data[0] 	179330
scalar simple_scenario_network.node[0].core_layer 	repo_int[0] 	178676
scalar simple_scenario_network.node[0].content_store 	p_hit[0] 	0.0020201120800476
scalar simple_scenario_network.node[0].content_store 	hits[0] 	363
scalar simple_scenario_network.node[0].content_store 	misses[0] 	179330
scalar simple_scenario_network.node[1].core_layer 	interests[1] 	91566
scalar simple_scenario_network.node[1].core_layer 	data[1] 	91234
scalar simple_scenario_network.node[1].content_store 	p_hit[1] 	0.003625799969421
scalar simple_scenario_network.node[1].content_store 	hits[1] 	332
scalar simple_scenario_network.node[1].content_store 	misses[1] 	91234
scalar simple_scenario_network.node[2].core_layer 	interests[2] 	87764
scalar simple_scenario_network.node[2].core_layer 	data[2] 	87442
scalar simple_scenario_network.node[2].content_store 	p_hit[2] 	0.0036689303131124
scalar simple_scenario_network.node[2].content_store 	hits[2] 	322
scalar simple_scenario_network.node[2].content_store 	misses[2] 	87442
scalar simple_scenario_network.node[3].core_layer 	interests[3] 	91234
scalar simple_scenario_network.node[3].core_layer 	repo_load[3] 	91234
scalar simple_scenario_network.node[3].core_layer 	data[3] 	0
scalar simple_scenario_network.node[3].content_store 	p_hit[3] 	0
scalar simple_scenario_network.node[3].content_store 	hits[3] 	0
scalar simple_scenario_network.node[3].content_store 	misses[3] 	91234
scalar simple_scenario_network.node[4].core_layer 	interests[4] 	87442
scalar simple_scenario_network.node[4].core_layer 	repo_load[4] 	87442
scalar simple_scenario_network.node[4].core_layer 	data[4] 	0
scalar simple_scenario_network.node[4].content_store 	p_hit[4] 	0
scalar simple_scenario_network.node[4].content_store 	hits[4] 	0
scalar simple_scenario_network.node[4].content_store 	misses[4] 	87442
scalar simple_scenario_network.client[0] 	hdistance[0] 	2.9866605822152
scalar simple_scenario_network.client[0] 	downloads[0] 	179693
scalar simple_scenario_network.client[0] 	avg_time[0] 	0.001999742289
