version 2
run General-14-20140703-16:46:18-9702
attr D tailandrank
attr F spr
attr R lru
attr a 1
attr configname General
attr csize 1e3
attr ctlg 1e5
attr datetime 20140703-16:46:18
attr experiment General
attr inifile omnetpp.ini
attr iterationvars "$net=geant_cost, $rep=4, $priceratiovalue=10, $weights=0.333_0.333_0.334, $lambda=100, $a=1, $ctlg=1e5, $F=spr, $ttl=1000, $D=tailandrank, $xi=1, $R=lru, $csize=1e3, $pricebits=0, $window=60, $variance=0.05, $mytime=1800"
attr iterationvars2 "$net=geant_cost, $rep=4, $priceratiovalue=10, $weights=0.333_0.333_0.334, $lambda=100, $a=1, $ctlg=1e5, $F=spr, $ttl=1000, $D=tailandrank, $xi=1, $R=lru, $csize=1e3, $pricebits=0, $window=60, $variance=0.05, $mytime=1800, $repetition=0"
attr lambda 100
attr measurement "$net=geant_cost, $rep=4, $priceratiovalue=10, $weights=0.333_0.333_0.334, $lambda=100, $a=1, $ctlg=1e5, $F=spr, $ttl=1000, $D=tailandrank, $xi=1, $R=lru, $csize=1e3, $pricebits=0, $window=60, $variance=0.05, $mytime=1800"
attr mytime 1800
attr net geant_cost
attr network "networks.${net=geant_cost, abilene_cost}_network"
attr pricebits 0
attr priceratiovalue 10
attr processid 9702
attr rep 4
attr repetition 0
attr replication #0
attr resultdir results
attr runnumber 14
attr seedset 4
attr ttl 1000
attr variance 0.05
attr weights 0.333_0.333_0.334
attr window 60
attr xi 1

scalar . 	a 	1
scalar . 	csize 	1e3
scalar . 	ctlg 	1e5
scalar . 	lambda 	100
scalar . 	mytime 	1800
scalar . 	pricebits 	0
scalar . 	priceratiovalue 	10
scalar . 	rep 	4
scalar . 	ttl 	1000
scalar . 	variance 	0.05
scalar . 	window 	60
scalar . 	xi 	1
scalar geant_cost_network.content_distribution 	repo-0 	22
scalar geant_cost_network.content_distribution 	repo-1 	23
scalar geant_cost_network.content_distribution 	repo-2 	24
scalar geant_cost_network.content_distribution 	client-0 	20
scalar geant_cost_network.content_distribution 	client-1 	10
scalar geant_cost_network.content_distribution 	client-2 	12
scalar geant_cost_network.content_distribution 	client-3 	9
scalar geant_cost_network.content_distribution 	client-4 	5
scalar geant_cost_network.content_distribution 	repo-0_card 	33272
scalar geant_cost_network.content_distribution 	repo-1_card 	33152
scalar geant_cost_network.content_distribution 	repo-2_card 	33576
scalar geant_cost_network.statistics 	repo_popularity[0] 	0.28234107170654
scalar geant_cost_network.statistics 	repo_popularity[1] 	0.30413978820018
scalar geant_cost_network.statistics 	repo_popularity[2] 	0.41351914009327
scalar geant_cost_network.statistics 	stabilization_time 	36060
scalar geant_cost_network.node[7].face$o[4].channel 	price[7] 	0
scalar geant_cost_network.node[7].face$o[4].channel 	represented_price[7] 	0
scalar geant_cost_network.node[8].face$o[3].channel 	price[8] 	0
scalar geant_cost_network.node[8].face$o[3].channel 	represented_price[8] 	0
scalar geant_cost_network.node[21].face$o[5].channel 	price[21] 	0
scalar geant_cost_network.node[21].face$o[5].channel 	represented_price[21] 	0
scalar geant_cost_network.node[22].face$o[1].channel 	price[22] 	0
scalar geant_cost_network.node[22].face$o[1].channel 	represented_price[22] 	0
scalar geant_cost_network.node[23].face$o[1].channel 	price[23] 	1
scalar geant_cost_network.node[23].face$o[1].channel 	represented_price[23] 	1
scalar geant_cost_network.node[24].face$o[1].channel 	price[24] 	10
scalar geant_cost_network.node[24].face$o[1].channel 	represented_price[24] 	10
scalar geant_cost_network.statistics 	p_hit 	0.11861110011902
scalar geant_cost_network.statistics 	interests 	118266.84
scalar geant_cost_network.statistics 	data 	82282.84
scalar geant_cost_network.statistics 	hdistance 	2.8975065828603
scalar geant_cost_network.statistics 	avg_time 	0.004229121794
scalar geant_cost_network.statistics 	downloads 	899522
scalar geant_cost_network.statistics 	total_cost 	1971815
scalar geant_cost_network.statistics 	total_replicas 	100000
scalar geant_cost_network.statistics 	inner_hit 	0.38994488183724
scalar geant_cost_network.statistics 	interests_sent 	899598
scalar geant_cost_network.node[0].core_layer 	interests[0] 	0
scalar geant_cost_network.node[0].core_layer 	data[0] 	0
scalar geant_cost_network.node[0].core_layer 	repo_int[0] 	548758
scalar geant_cost_network.node[0].content_store 	p_hit[0] 	-nan
scalar geant_cost_network.node[0].content_store 	hits[0] 	0
scalar geant_cost_network.node[0].content_store 	misses[0] 	0
scalar geant_cost_network.node[0].content_store 	decision_yes[0] 	0
scalar geant_cost_network.node[0].content_store 	decision_no[0] 	0
scalar geant_cost_network.node[0].content_store 	decision_ratio[0] 	0
scalar geant_cost_network.node[1].core_layer 	interests[1] 	0
scalar geant_cost_network.node[1].core_layer 	data[1] 	0
scalar geant_cost_network.node[1].content_store 	p_hit[1] 	-nan
scalar geant_cost_network.node[1].content_store 	hits[1] 	0
scalar geant_cost_network.node[1].content_store 	misses[1] 	0
scalar geant_cost_network.node[1].content_store 	decision_yes[1] 	0
scalar geant_cost_network.node[1].content_store 	decision_no[1] 	0
scalar geant_cost_network.node[1].content_store 	decision_ratio[1] 	0
scalar geant_cost_network.node[2].core_layer 	interests[2] 	0
scalar geant_cost_network.node[2].core_layer 	data[2] 	0
scalar geant_cost_network.node[2].content_store 	p_hit[2] 	-nan
scalar geant_cost_network.node[2].content_store 	hits[2] 	0
scalar geant_cost_network.node[2].content_store 	misses[2] 	0
scalar geant_cost_network.node[2].content_store 	decision_yes[2] 	0
scalar geant_cost_network.node[2].content_store 	decision_no[2] 	0
scalar geant_cost_network.node[2].content_store 	decision_ratio[2] 	0
scalar geant_cost_network.node[3].core_layer 	interests[3] 	152788
scalar geant_cost_network.node[3].core_layer 	data[3] 	149598
scalar geant_cost_network.node[3].content_store 	p_hit[3] 	0.020878603031652
scalar geant_cost_network.node[3].content_store 	hits[3] 	3190
scalar geant_cost_network.node[3].content_store 	misses[3] 	149598
scalar geant_cost_network.node[3].content_store 	decision_yes[3] 	0
scalar geant_cost_network.node[3].content_store 	decision_no[3] 	149598
scalar geant_cost_network.node[3].content_store 	decision_ratio[3] 	0
scalar geant_cost_network.node[4].core_layer 	interests[4] 	225004
scalar geant_cost_network.node[4].core_layer 	data[4] 	224802
scalar geant_cost_network.node[4].content_store 	p_hit[4] 	0.00088887308670068
scalar geant_cost_network.node[4].content_store 	hits[4] 	200
scalar geant_cost_network.node[4].content_store 	misses[4] 	224804
scalar geant_cost_network.node[4].content_store 	decision_yes[4] 	0
scalar geant_cost_network.node[4].content_store 	decision_no[4] 	224802
scalar geant_cost_network.node[4].content_store 	decision_ratio[4] 	0
scalar geant_cost_network.node[5].core_layer 	interests[5] 	180216
scalar geant_cost_network.node[5].core_layer 	data[5] 	114362
scalar geant_cost_network.node[5].content_store 	p_hit[5] 	0.3652949793581
scalar geant_cost_network.node[5].content_store 	hits[5] 	65832
scalar geant_cost_network.node[5].content_store 	misses[5] 	114384
scalar geant_cost_network.node[5].content_store 	decision_yes[5] 	0
scalar geant_cost_network.node[5].content_store 	decision_no[5] 	114362
scalar geant_cost_network.node[5].content_store 	decision_ratio[5] 	0
scalar geant_cost_network.node[6].core_layer 	interests[6] 	76524
scalar geant_cost_network.node[6].core_layer 	data[6] 	74849
scalar geant_cost_network.node[6].content_store 	p_hit[6] 	0.021888557838064
scalar geant_cost_network.node[6].content_store 	hits[6] 	1675
scalar geant_cost_network.node[6].content_store 	misses[6] 	74849
scalar geant_cost_network.node[6].content_store 	decision_yes[6] 	0
scalar geant_cost_network.node[6].content_store 	decision_no[6] 	74849
scalar geant_cost_network.node[6].content_store 	decision_ratio[6] 	0
scalar geant_cost_network.node[7].core_layer 	interests[7] 	269939
scalar geant_cost_network.node[7].core_layer 	data[7] 	262546
scalar geant_cost_network.node[7].content_store 	p_hit[7] 	0.027369146362697
scalar geant_cost_network.node[7].content_store 	hits[7] 	7388
scalar geant_cost_network.node[7].content_store 	misses[7] 	262551
scalar geant_cost_network.node[7].content_store 	decision_yes[7] 	0
scalar geant_cost_network.node[7].content_store 	decision_no[7] 	262546
scalar geant_cost_network.node[7].content_store 	decision_ratio[7] 	0
scalar geant_cost_network.node[8].core_layer 	interests[8] 	260610
scalar geant_cost_network.node[8].core_layer 	data[8] 	257403
scalar geant_cost_network.node[8].content_store 	p_hit[8] 	0.012301907064196
scalar geant_cost_network.node[8].content_store 	hits[8] 	3206
scalar geant_cost_network.node[8].content_store 	misses[8] 	257404
scalar geant_cost_network.node[8].content_store 	decision_yes[8] 	0
scalar geant_cost_network.node[8].content_store 	decision_no[8] 	257403
scalar geant_cost_network.node[8].content_store 	decision_ratio[8] 	0
scalar geant_cost_network.node[9].core_layer 	interests[9] 	330652
scalar geant_cost_network.node[9].core_layer 	data[9] 	264853
scalar geant_cost_network.node[9].content_store 	p_hit[9] 	0.19887676469521
scalar geant_cost_network.node[9].content_store 	hits[9] 	65759
scalar geant_cost_network.node[9].content_store 	misses[9] 	264893
scalar geant_cost_network.node[9].content_store 	decision_yes[9] 	0
scalar geant_cost_network.node[9].content_store 	decision_no[9] 	264853
scalar geant_cost_network.node[9].content_store 	decision_ratio[9] 	0
scalar geant_cost_network.node[10].core_layer 	interests[10] 	179602
scalar geant_cost_network.node[10].core_layer 	data[10] 	114004
scalar geant_cost_network.node[10].content_store 	p_hit[10] 	0.36516853932584
scalar geant_cost_network.node[10].content_store 	hits[10] 	65585
scalar geant_cost_network.node[10].content_store 	misses[10] 	114017
scalar geant_cost_network.node[10].content_store 	decision_yes[10] 	0
scalar geant_cost_network.node[10].content_store 	decision_no[10] 	114004
scalar geant_cost_network.node[10].content_store 	decision_ratio[10] 	0
scalar geant_cost_network.node[11].core_layer 	interests[11] 	0
scalar geant_cost_network.node[11].core_layer 	data[11] 	0
scalar geant_cost_network.node[11].content_store 	p_hit[11] 	-nan
scalar geant_cost_network.node[11].content_store 	hits[11] 	0
scalar geant_cost_network.node[11].content_store 	misses[11] 	0
scalar geant_cost_network.node[11].content_store 	decision_yes[11] 	0
scalar geant_cost_network.node[11].content_store 	decision_no[11] 	0
scalar geant_cost_network.node[11].content_store 	decision_ratio[11] 	0
scalar geant_cost_network.node[12].core_layer 	interests[12] 	255355
scalar geant_cost_network.node[12].core_layer 	data[12] 	189442
scalar geant_cost_network.node[12].content_store 	p_hit[12] 	0.25793894773942
scalar geant_cost_network.node[12].content_store 	hits[12] 	65866
scalar geant_cost_network.node[12].content_store 	misses[12] 	189489
scalar geant_cost_network.node[12].content_store 	decision_yes[12] 	0
scalar geant_cost_network.node[12].content_store 	decision_no[12] 	189442
scalar geant_cost_network.node[12].content_store 	decision_ratio[12] 	0
scalar geant_cost_network.node[13].core_layer 	interests[13] 	0
scalar geant_cost_network.node[13].core_layer 	data[13] 	0
scalar geant_cost_network.node[13].content_store 	p_hit[13] 	-nan
scalar geant_cost_network.node[13].content_store 	hits[13] 	0
scalar geant_cost_network.node[13].content_store 	misses[13] 	0
scalar geant_cost_network.node[13].content_store 	decision_yes[13] 	0
scalar geant_cost_network.node[13].content_store 	decision_no[13] 	0
scalar geant_cost_network.node[13].content_store 	decision_ratio[13] 	0
scalar geant_cost_network.node[14].core_layer 	interests[14] 	37838
scalar geant_cost_network.node[14].core_layer 	data[14] 	36283
scalar geant_cost_network.node[14].content_store 	p_hit[14] 	0.041096252444632
scalar geant_cost_network.node[14].content_store 	hits[14] 	1555
scalar geant_cost_network.node[14].content_store 	misses[14] 	36283
scalar geant_cost_network.node[14].content_store 	decision_yes[14] 	0
scalar geant_cost_network.node[14].content_store 	decision_no[14] 	36283
scalar geant_cost_network.node[14].content_store 	decision_ratio[14] 	0
scalar geant_cost_network.node[15].core_layer 	interests[15] 	0
scalar geant_cost_network.node[15].core_layer 	data[15] 	0
scalar geant_cost_network.node[15].content_store 	p_hit[15] 	-nan
scalar geant_cost_network.node[15].content_store 	hits[15] 	0
scalar geant_cost_network.node[15].content_store 	misses[15] 	0
scalar geant_cost_network.node[15].content_store 	decision_yes[15] 	0
scalar geant_cost_network.node[15].content_store 	decision_no[15] 	0
scalar geant_cost_network.node[15].content_store 	decision_ratio[15] 	0
scalar geant_cost_network.node[16].core_layer 	interests[16] 	0
scalar geant_cost_network.node[16].core_layer 	data[16] 	0
scalar geant_cost_network.node[16].content_store 	p_hit[16] 	-nan
scalar geant_cost_network.node[16].content_store 	hits[16] 	0
scalar geant_cost_network.node[16].content_store 	misses[16] 	0
scalar geant_cost_network.node[16].content_store 	decision_yes[16] 	0
scalar geant_cost_network.node[16].content_store 	decision_no[16] 	0
scalar geant_cost_network.node[16].content_store 	decision_ratio[16] 	0
scalar geant_cost_network.node[17].core_layer 	interests[17] 	0
scalar geant_cost_network.node[17].core_layer 	data[17] 	0
scalar geant_cost_network.node[17].content_store 	p_hit[17] 	-nan
scalar geant_cost_network.node[17].content_store 	hits[17] 	0
scalar geant_cost_network.node[17].content_store 	misses[17] 	0
scalar geant_cost_network.node[17].content_store 	decision_yes[17] 	0
scalar geant_cost_network.node[17].content_store 	decision_no[17] 	0
scalar geant_cost_network.node[17].content_store 	decision_ratio[17] 	0
scalar geant_cost_network.node[18].core_layer 	interests[18] 	77126
scalar geant_cost_network.node[18].core_layer 	data[18] 	75407
scalar geant_cost_network.node[18].content_store 	p_hit[18] 	0.02230116951482
scalar geant_cost_network.node[18].content_store 	hits[18] 	1720
scalar geant_cost_network.node[18].content_store 	misses[18] 	75406
scalar geant_cost_network.node[18].content_store 	decision_yes[18] 	0
scalar geant_cost_network.node[18].content_store 	decision_no[18] 	75407
scalar geant_cost_network.node[18].content_store 	decision_ratio[18] 	0
scalar geant_cost_network.node[19].core_layer 	interests[19] 	0
scalar geant_cost_network.node[19].core_layer 	data[19] 	0
scalar geant_cost_network.node[19].content_store 	p_hit[19] 	-nan
scalar geant_cost_network.node[19].content_store 	hits[19] 	0
scalar geant_cost_network.node[19].content_store 	misses[19] 	0
scalar geant_cost_network.node[19].content_store 	decision_yes[19] 	0
scalar geant_cost_network.node[19].content_store 	decision_no[19] 	0
scalar geant_cost_network.node[19].content_store 	decision_ratio[19] 	0
scalar geant_cost_network.node[20].core_layer 	interests[20] 	179609
scalar geant_cost_network.node[20].core_layer 	data[20] 	114114
scalar geant_cost_network.node[20].content_store 	p_hit[20] 	0.36454743359186
scalar geant_cost_network.node[20].content_store 	hits[20] 	65476
scalar geant_cost_network.node[20].content_store 	misses[20] 	114133
scalar geant_cost_network.node[20].content_store 	decision_yes[20] 	0
scalar geant_cost_network.node[20].content_store 	decision_no[20] 	114114
scalar geant_cost_network.node[20].content_store 	decision_ratio[20] 	0
scalar geant_cost_network.node[21].core_layer 	interests[21] 	182650
scalar geant_cost_network.node[21].core_layer 	data[21] 	179408
scalar geant_cost_network.node[21].content_store 	p_hit[21] 	0.017749794689296
scalar geant_cost_network.node[21].content_store 	hits[21] 	3242
scalar geant_cost_network.node[21].content_store 	misses[21] 	179408
scalar geant_cost_network.node[21].content_store 	decision_yes[21] 	0
scalar geant_cost_network.node[21].content_store 	decision_no[21] 	179408
scalar geant_cost_network.node[21].content_store 	decision_ratio[21] 	0
scalar geant_cost_network.node[22].core_layer 	interests[22] 	191615
scalar geant_cost_network.node[22].core_layer 	repo_load[22] 	191615
scalar geant_cost_network.node[22].core_layer 	data[22] 	0
scalar geant_cost_network.node[22].content_store 	p_hit[22] 	0
scalar geant_cost_network.node[22].content_store 	hits[22] 	0
scalar geant_cost_network.node[22].content_store 	misses[22] 	191615
scalar geant_cost_network.node[22].content_store 	decision_yes[22] 	0
scalar geant_cost_network.node[22].content_store 	decision_no[22] 	191615
scalar geant_cost_network.node[22].content_store 	decision_ratio[22] 	0
scalar geant_cost_network.node[23].core_layer 	interests[23] 	177735
scalar geant_cost_network.node[23].core_layer 	repo_load[23] 	177735
scalar geant_cost_network.node[23].core_layer 	data[23] 	0
scalar geant_cost_network.node[23].content_store 	p_hit[23] 	0
scalar geant_cost_network.node[23].content_store 	hits[23] 	0
scalar geant_cost_network.node[23].content_store 	misses[23] 	177735
scalar geant_cost_network.node[23].content_store 	decision_yes[23] 	0
scalar geant_cost_network.node[23].content_store 	decision_no[23] 	177735
scalar geant_cost_network.node[23].content_store 	decision_ratio[23] 	0
scalar geant_cost_network.node[24].core_layer 	interests[24] 	179408
scalar geant_cost_network.node[24].core_layer 	repo_load[24] 	179408
scalar geant_cost_network.node[24].core_layer 	data[24] 	0
scalar geant_cost_network.node[24].content_store 	p_hit[24] 	0
scalar geant_cost_network.node[24].content_store 	hits[24] 	0
scalar geant_cost_network.node[24].content_store 	misses[24] 	179408
scalar geant_cost_network.node[24].content_store 	decision_yes[24] 	0
scalar geant_cost_network.node[24].content_store 	decision_no[24] 	179408
scalar geant_cost_network.node[24].content_store 	decision_ratio[24] 	0
scalar geant_cost_network.client[5] 	hdistance[5] 	2.6467529440492
scalar geant_cost_network.client[5] 	downloads[5] 	180194
scalar geant_cost_network.client[5] 	avg_time[5] 	0.00659352518
scalar geant_cost_network.client[5] 	interests_sent[5] 	180216
scalar geant_cost_network.client[9] 	hdistance[9] 	2.6986015190493
scalar geant_cost_network.client[9] 	downloads[9] 	179981
scalar geant_cost_network.client[9] 	avg_time[9] 	0.002711449659
scalar geant_cost_network.client[9] 	interests_sent[9] 	179992
scalar geant_cost_network.client[10] 	hdistance[10] 	3.3322920668861
scalar geant_cost_network.client[10] 	downloads[10] 	179589
scalar geant_cost_network.client[10] 	avg_time[10] 	0.003977043558
scalar geant_cost_network.client[10] 	interests_sent[10] 	179602
scalar geant_cost_network.client[12] 	hdistance[12] 	2.9126370942676
scalar geant_cost_network.client[12] 	downloads[12] 	180168
scalar geant_cost_network.client[12] 	avg_time[12] 	0.003231692636
scalar geant_cost_network.client[12] 	interests_sent[12] 	180179
scalar geant_cost_network.client[20] 	hdistance[20] 	2.8972492900496
scalar geant_cost_network.client[20] 	downloads[20] 	179590
scalar geant_cost_network.client[20] 	avg_time[20] 	0.004631897939
scalar geant_cost_network.client[20] 	interests_sent[20] 	179609
