version 2
run General-843-20140502-02:40:38-9742
attr D fix0.5
attr F nrr
attr R lru
attr a 1
attr configname General
attr csize 1e3
attr ctlg 1e5
attr datetime 20140502-02:40:38
attr experiment General
attr inifile omnetpp.ini
attr iterationvars "$net=three_caches_scenario_3_links, $rep=2, $priceratiovalue=2, $weights=0_0.5_0.5, $a=1, $ctlg=1e5, $F=nrr, $ttl=1000, $D=fix0.5, $xi=1, $R=lru, $csize=1e3"
attr iterationvars2 "$net=three_caches_scenario_3_links, $rep=2, $priceratiovalue=2, $weights=0_0.5_0.5, $a=1, $ctlg=1e5, $F=nrr, $ttl=1000, $D=fix0.5, $xi=1, $R=lru, $csize=1e3, $repetition=0"
attr measurement "$net=three_caches_scenario_3_links, $rep=2, $priceratiovalue=2, $weights=0_0.5_0.5, $a=1, $ctlg=1e5, $F=nrr, $ttl=1000, $D=fix0.5, $xi=1, $R=lru, $csize=1e3"
attr net three_caches_scenario_3_links
attr network networks.${net=three_caches_scenario_3_links}_network
attr priceratiovalue 2
attr processid 9742
attr rep 2
attr repetition 0
attr replication #0
attr resultdir results
attr runnumber 843
attr seedset 2
attr ttl 1000
attr weights 0_0.5_0.5
attr xi 1

scalar . 	a 	1
scalar . 	csize 	1e3
scalar . 	ctlg 	1e5
scalar . 	priceratiovalue 	2
scalar . 	rep 	2
scalar . 	ttl 	1000
scalar . 	xi 	1
scalar three_caches_scenario_3_links_network.content_distribution 	repo-0 	4
scalar three_caches_scenario_3_links_network.content_distribution 	repo-1 	5
scalar three_caches_scenario_3_links_network.content_distribution 	repo-2 	6
scalar three_caches_scenario_3_links_network.content_distribution 	client-0 	0
scalar three_caches_scenario_3_links_network.content_distribution 	repo-0_card 	0
scalar three_caches_scenario_3_links_network.content_distribution 	repo-1_card 	50028
scalar three_caches_scenario_3_links_network.content_distribution 	repo-2_card 	49972
scalar three_caches_scenario_3_links_network.statistics 	p_hit 	0.23015137391157
scalar three_caches_scenario_3_links_network.statistics 	interests 	53944
scalar three_caches_scenario_3_links_network.statistics 	data 	28259.285714286
scalar three_caches_scenario_3_links_network.statistics 	hdistance 	1.6168649502483
scalar three_caches_scenario_3_links_network.statistics 	avg_time 	0
scalar three_caches_scenario_3_links_network.statistics 	downloads 	179793
scalar three_caches_scenario_3_links_network.statistics 	total_cost 	139711
scalar three_caches_scenario_3_links_network.statistics 	total_replicas 	100000
scalar three_caches_scenario_3_links_network.statistics 	interests_sent 	179793
scalar three_caches_scenario_3_links_network.node[0].core_layer 	interests[0] 	179793
scalar three_caches_scenario_3_links_network.node[0].core_layer 	data[0] 	104929
scalar three_caches_scenario_3_links_network.node[0].core_layer 	repo_int[0] 	92886
scalar three_caches_scenario_3_links_network.node[0].content_store 	p_hit[0] 	0.41638995956461
scalar three_caches_scenario_3_links_network.node[0].content_store 	hits[0] 	74864
scalar three_caches_scenario_3_links_network.node[0].content_store 	misses[0] 	104929
scalar three_caches_scenario_3_links_network.node[0].content_store 	decision_yes[0] 	52602
scalar three_caches_scenario_3_links_network.node[0].content_store 	decision_no[0] 	52327
scalar three_caches_scenario_3_links_network.node[1].core_layer 	interests[1] 	0
scalar three_caches_scenario_3_links_network.node[1].core_layer 	data[1] 	0
scalar three_caches_scenario_3_links_network.node[1].content_store 	p_hit[1] 	-nan
scalar three_caches_scenario_3_links_network.node[1].content_store 	hits[1] 	0
scalar three_caches_scenario_3_links_network.node[1].content_store 	misses[1] 	0
scalar three_caches_scenario_3_links_network.node[1].content_store 	decision_yes[1] 	0
scalar three_caches_scenario_3_links_network.node[1].content_store 	decision_no[1] 	0
scalar three_caches_scenario_3_links_network.node[2].core_layer 	interests[2] 	52021
scalar three_caches_scenario_3_links_network.node[2].core_layer 	data[2] 	46061
scalar three_caches_scenario_3_links_network.node[2].content_store 	p_hit[2] 	0.11456911631841
scalar three_caches_scenario_3_links_network.node[2].content_store 	hits[2] 	5960
scalar three_caches_scenario_3_links_network.node[2].content_store 	misses[2] 	46061
scalar three_caches_scenario_3_links_network.node[2].content_store 	decision_yes[2] 	23010
scalar three_caches_scenario_3_links_network.node[2].content_store 	decision_no[2] 	23051
scalar three_caches_scenario_3_links_network.node[3].core_layer 	interests[3] 	52908
scalar three_caches_scenario_3_links_network.node[3].core_layer 	data[3] 	46825
scalar three_caches_scenario_3_links_network.node[3].content_store 	p_hit[3] 	0.11497316095865
scalar three_caches_scenario_3_links_network.node[3].content_store 	hits[3] 	6083
scalar three_caches_scenario_3_links_network.node[3].content_store 	misses[3] 	46825
scalar three_caches_scenario_3_links_network.node[3].content_store 	decision_yes[3] 	23493
scalar three_caches_scenario_3_links_network.node[3].content_store 	decision_no[3] 	23332
scalar three_caches_scenario_3_links_network.node[4].core_layer 	interests[4] 	0
scalar three_caches_scenario_3_links_network.node[4].core_layer 	data[4] 	0
scalar three_caches_scenario_3_links_network.node[4].content_store 	p_hit[4] 	-nan
scalar three_caches_scenario_3_links_network.node[4].content_store 	hits[4] 	0
scalar three_caches_scenario_3_links_network.node[4].content_store 	misses[4] 	0
scalar three_caches_scenario_3_links_network.node[4].content_store 	decision_yes[4] 	0
scalar three_caches_scenario_3_links_network.node[4].content_store 	decision_no[4] 	0
scalar three_caches_scenario_3_links_network.node[5].core_layer 	interests[5] 	46061
scalar three_caches_scenario_3_links_network.node[5].core_layer 	repo_load[5] 	46061
scalar three_caches_scenario_3_links_network.node[5].core_layer 	data[5] 	0
scalar three_caches_scenario_3_links_network.node[5].content_store 	p_hit[5] 	0
scalar three_caches_scenario_3_links_network.node[5].content_store 	hits[5] 	0
scalar three_caches_scenario_3_links_network.node[5].content_store 	misses[5] 	46061
scalar three_caches_scenario_3_links_network.node[5].content_store 	decision_yes[5] 	0
scalar three_caches_scenario_3_links_network.node[5].content_store 	decision_no[5] 	46061
scalar three_caches_scenario_3_links_network.node[6].core_layer 	interests[6] 	46825
scalar three_caches_scenario_3_links_network.node[6].core_layer 	repo_load[6] 	46825
scalar three_caches_scenario_3_links_network.node[6].core_layer 	data[6] 	0
scalar three_caches_scenario_3_links_network.node[6].content_store 	p_hit[6] 	0
scalar three_caches_scenario_3_links_network.node[6].content_store 	hits[6] 	0
scalar three_caches_scenario_3_links_network.node[6].content_store 	misses[6] 	46825
scalar three_caches_scenario_3_links_network.node[6].content_store 	decision_yes[6] 	0
scalar three_caches_scenario_3_links_network.node[6].content_store 	decision_no[6] 	46825
scalar three_caches_scenario_3_links_network.client[0] 	hdistance[0] 	1.6168649502483
scalar three_caches_scenario_3_links_network.client[0] 	downloads[0] 	179793
scalar three_caches_scenario_3_links_network.client[0] 	avg_time[0] 	0
scalar three_caches_scenario_3_links_network.client[0] 	interests_sent[0] 	179793
