version 2
run General-38-20140425-21:49:11-20974
attr D costprob0.02
attr F nrr
attr R lru
attr a 1
attr configname General
attr csize 1000
attr ctlg 10^5
attr datetime 20140425-21:49:11
attr experiment General
attr inifile omnetpp.ini
attr iterationvars "$net=one_cache_scenario, $rep=4, $priceratiovalue=2, $a=1, $ctlg=10^5, $F=nrr, $ttl=1000, $D=costprob0.02, $R=lru, $csize=1000, $tempo=1800"
attr iterationvars2 "$net=one_cache_scenario, $rep=4, $priceratiovalue=2, $a=1, $ctlg=10^5, $F=nrr, $ttl=1000, $D=costprob0.02, $R=lru, $csize=1000, $tempo=1800, $repetition=0"
attr measurement "$net=one_cache_scenario, $rep=4, $priceratiovalue=2, $a=1, $ctlg=10^5, $F=nrr, $ttl=1000, $D=costprob0.02, $R=lru, $csize=1000, $tempo=1800"
attr net one_cache_scenario
attr network networks.${net=one_cache_scenario}_network
attr priceratiovalue 2
attr processid 20974
attr rep 4
attr repetition 0
attr replication #0
attr resultdir results
attr runnumber 38
attr seedset 4
attr tempo 1800
attr ttl 1000

scalar . 	a 	1
scalar . 	csize 	1000
scalar . 	priceratiovalue 	2
scalar . 	rep 	4
scalar . 	tempo 	1800
scalar . 	ttl 	1000
scalar one_cache_scenario_network.content_distribution 	repo-0 	3
scalar one_cache_scenario_network.content_distribution 	repo-1 	4
scalar one_cache_scenario_network.content_distribution 	client-0 	0
scalar one_cache_scenario_network.content_distribution 	repo-0_card 	50216
scalar one_cache_scenario_network.content_distribution 	repo-1_card 	49784
scalar one_cache_scenario_network.statistics 	p_hit 	0.27410124977411
scalar one_cache_scenario_network.statistics 	interests 	69724.6
scalar one_cache_scenario_network.statistics 	data 	33742
scalar one_cache_scenario_network.statistics 	hdistance 	0.93773101443476
scalar one_cache_scenario_network.statistics 	avg_time 	0
scalar one_cache_scenario_network.statistics 	downloads 	179913
scalar one_cache_scenario_network.statistics 	total_cost 	41282
scalar one_cache_scenario_network.statistics 	interests_sent 	179913
scalar one_cache_scenario_network.node[0].core_layer 	interests[0] 	179913
scalar one_cache_scenario_network.node[0].core_layer 	data[0] 	84355
scalar one_cache_scenario_network.node[0].core_layer 	repo_int[0] 	84355
scalar one_cache_scenario_network.node[0].content_store 	p_hit[0] 	0.53113449278262
scalar one_cache_scenario_network.node[0].content_store 	hits[0] 	95558
scalar one_cache_scenario_network.node[0].content_store 	misses[0] 	84355
scalar one_cache_scenario_network.node[0].content_store 	decision_yes[0] 	821
scalar one_cache_scenario_network.node[0].content_store 	decision_no[0] 	83534
scalar one_cache_scenario_network.node[1].core_layer 	interests[1] 	44863
scalar one_cache_scenario_network.node[1].core_layer 	data[1] 	44863
scalar one_cache_scenario_network.node[1].content_store 	p_hit[1] 	0
scalar one_cache_scenario_network.node[1].content_store 	hits[1] 	0
scalar one_cache_scenario_network.node[1].content_store 	misses[1] 	44863
scalar one_cache_scenario_network.node[1].content_store 	decision_yes[1] 	0
scalar one_cache_scenario_network.node[1].content_store 	decision_no[1] 	44863
scalar one_cache_scenario_network.node[2].core_layer 	interests[2] 	39492
scalar one_cache_scenario_network.node[2].core_layer 	data[2] 	39492
scalar one_cache_scenario_network.node[2].content_store 	p_hit[2] 	0
scalar one_cache_scenario_network.node[2].content_store 	hits[2] 	0
scalar one_cache_scenario_network.node[2].content_store 	misses[2] 	39492
scalar one_cache_scenario_network.node[2].content_store 	decision_yes[2] 	0
scalar one_cache_scenario_network.node[2].content_store 	decision_no[2] 	39492
scalar one_cache_scenario_network.node[3].core_layer 	interests[3] 	44863
scalar one_cache_scenario_network.node[3].core_layer 	repo_load[3] 	44863
scalar one_cache_scenario_network.node[3].core_layer 	data[3] 	0
scalar one_cache_scenario_network.node[3].content_store 	p_hit[3] 	0
scalar one_cache_scenario_network.node[3].content_store 	hits[3] 	0
scalar one_cache_scenario_network.node[3].content_store 	misses[3] 	44863
scalar one_cache_scenario_network.node[3].content_store 	decision_yes[3] 	0
scalar one_cache_scenario_network.node[3].content_store 	decision_no[3] 	44863
scalar one_cache_scenario_network.node[4].core_layer 	interests[4] 	39492
scalar one_cache_scenario_network.node[4].core_layer 	repo_load[4] 	39492
scalar one_cache_scenario_network.node[4].core_layer 	data[4] 	0
scalar one_cache_scenario_network.node[4].content_store 	p_hit[4] 	0
scalar one_cache_scenario_network.node[4].content_store 	hits[4] 	0
scalar one_cache_scenario_network.node[4].content_store 	misses[4] 	39492
scalar one_cache_scenario_network.node[4].content_store 	decision_yes[4] 	0
scalar one_cache_scenario_network.node[4].content_store 	decision_no[4] 	39492
scalar one_cache_scenario_network.client[0] 	hdistance[0] 	0.93773101443476
scalar one_cache_scenario_network.client[0] 	downloads[0] 	179913
scalar one_cache_scenario_network.client[0] 	avg_time[0] 	0
scalar one_cache_scenario_network.client[0] 	interests_sent[0] 	179913
