version 2
run General-1110-20140502-03:14:35-10017
attr D costprob0.05
attr F nrr
attr R lru
attr a 1.2
attr configname General
attr csize 1e3
attr ctlg 1e5
attr datetime 20140502-03:14:35
attr experiment General
attr inifile omnetpp.ini
attr iterationvars "$net=three_caches_scenario_3_links, $rep=2, $priceratiovalue=10, $weights=0.7_0.15_0.15, $a=1.2, $ctlg=1e5, $F=nrr, $ttl=1000, $D=costprob0.05, $xi=1, $R=lru, $csize=1e3"
attr iterationvars2 "$net=three_caches_scenario_3_links, $rep=2, $priceratiovalue=10, $weights=0.7_0.15_0.15, $a=1.2, $ctlg=1e5, $F=nrr, $ttl=1000, $D=costprob0.05, $xi=1, $R=lru, $csize=1e3, $repetition=0"
attr measurement "$net=three_caches_scenario_3_links, $rep=2, $priceratiovalue=10, $weights=0.7_0.15_0.15, $a=1.2, $ctlg=1e5, $F=nrr, $ttl=1000, $D=costprob0.05, $xi=1, $R=lru, $csize=1e3"
attr net three_caches_scenario_3_links
attr network networks.${net=three_caches_scenario_3_links}_network
attr priceratiovalue 10
attr processid 10017
attr rep 2
attr repetition 0
attr replication #0
attr resultdir results
attr runnumber 1110
attr seedset 2
attr ttl 1000
attr weights 0.7_0.15_0.15
attr xi 1

scalar . 	a 	1.2
scalar . 	csize 	1e3
scalar . 	ctlg 	1e5
scalar . 	priceratiovalue 	10
scalar . 	rep 	2
scalar . 	ttl 	1000
scalar . 	xi 	1
scalar three_caches_scenario_3_links_network.content_distribution 	repo-0 	4
scalar three_caches_scenario_3_links_network.content_distribution 	repo-1 	5
scalar three_caches_scenario_3_links_network.content_distribution 	repo-2 	6
scalar three_caches_scenario_3_links_network.content_distribution 	client-0 	0
scalar three_caches_scenario_3_links_network.content_distribution 	repo-0_card 	69917
scalar three_caches_scenario_3_links_network.content_distribution 	repo-1_card 	15037
scalar three_caches_scenario_3_links_network.content_distribution 	repo-2_card 	15046
scalar three_caches_scenario_3_links_network.statistics 	p_hit 	0.090897659446047
scalar three_caches_scenario_3_links_network.statistics 	interests 	68164.571428571
scalar three_caches_scenario_3_links_network.statistics 	data 	42471.285714286
scalar three_caches_scenario_3_links_network.statistics 	hdistance 	1.693894458252
scalar three_caches_scenario_3_links_network.statistics 	avg_time 	0
scalar three_caches_scenario_3_links_network.statistics 	downloads 	179853
scalar three_caches_scenario_3_links_network.statistics 	total_cost 	37800
scalar three_caches_scenario_3_links_network.statistics 	total_replicas 	100000
scalar three_caches_scenario_3_links_network.statistics 	interests_sent 	179853
scalar three_caches_scenario_3_links_network.node[0].core_layer 	interests[0] 	179853
scalar three_caches_scenario_3_links_network.node[0].core_layer 	data[0] 	160818
scalar three_caches_scenario_3_links_network.node[0].core_layer 	repo_int[0] 	136481
scalar three_caches_scenario_3_links_network.node[0].content_store 	p_hit[0] 	0.10583643308702
scalar three_caches_scenario_3_links_network.node[0].content_store 	hits[0] 	19035
scalar three_caches_scenario_3_links_network.node[0].content_store 	misses[0] 	160818
scalar three_caches_scenario_3_links_network.node[0].content_store 	decision_yes[0] 	1145
scalar three_caches_scenario_3_links_network.node[0].content_store 	decision_no[0] 	159673
scalar three_caches_scenario_3_links_network.node[1].core_layer 	interests[1] 	129128
scalar three_caches_scenario_3_links_network.node[1].core_layer 	data[1] 	129128
scalar three_caches_scenario_3_links_network.node[1].content_store 	p_hit[1] 	0
scalar three_caches_scenario_3_links_network.node[1].content_store 	hits[1] 	0
scalar three_caches_scenario_3_links_network.node[1].content_store 	misses[1] 	129128
scalar three_caches_scenario_3_links_network.node[1].content_store 	decision_yes[1] 	0
scalar three_caches_scenario_3_links_network.node[1].content_store 	decision_no[1] 	129128
scalar three_caches_scenario_3_links_network.node[2].core_layer 	interests[2] 	14999
scalar three_caches_scenario_3_links_network.node[2].core_layer 	data[2] 	3970
scalar three_caches_scenario_3_links_network.node[2].content_store 	p_hit[2] 	0.73531568771251
scalar three_caches_scenario_3_links_network.node[2].content_store 	hits[2] 	11029
scalar three_caches_scenario_3_links_network.node[2].content_store 	misses[2] 	3970
scalar three_caches_scenario_3_links_network.node[2].content_store 	decision_yes[2] 	132
scalar three_caches_scenario_3_links_network.node[2].content_store 	decision_no[2] 	3838
scalar three_caches_scenario_3_links_network.node[3].core_layer 	interests[3] 	16691
scalar three_caches_scenario_3_links_network.node[3].core_layer 	data[3] 	3383
scalar three_caches_scenario_3_links_network.node[3].content_store 	p_hit[3] 	0.79731591875861
scalar three_caches_scenario_3_links_network.node[3].content_store 	hits[3] 	13308
scalar three_caches_scenario_3_links_network.node[3].content_store 	misses[3] 	3383
scalar three_caches_scenario_3_links_network.node[3].content_store 	decision_yes[3] 	984
scalar three_caches_scenario_3_links_network.node[3].content_store 	decision_no[3] 	2399
scalar three_caches_scenario_3_links_network.node[4].core_layer 	interests[4] 	129128
scalar three_caches_scenario_3_links_network.node[4].core_layer 	repo_load[4] 	129128
scalar three_caches_scenario_3_links_network.node[4].core_layer 	data[4] 	0
scalar three_caches_scenario_3_links_network.node[4].content_store 	p_hit[4] 	0
scalar three_caches_scenario_3_links_network.node[4].content_store 	hits[4] 	0
scalar three_caches_scenario_3_links_network.node[4].content_store 	misses[4] 	129128
scalar three_caches_scenario_3_links_network.node[4].content_store 	decision_yes[4] 	0
scalar three_caches_scenario_3_links_network.node[4].content_store 	decision_no[4] 	129128
scalar three_caches_scenario_3_links_network.node[5].core_layer 	interests[5] 	3970
scalar three_caches_scenario_3_links_network.node[5].core_layer 	repo_load[5] 	3970
scalar three_caches_scenario_3_links_network.node[5].core_layer 	data[5] 	0
scalar three_caches_scenario_3_links_network.node[5].content_store 	p_hit[5] 	0
scalar three_caches_scenario_3_links_network.node[5].content_store 	hits[5] 	0
scalar three_caches_scenario_3_links_network.node[5].content_store 	misses[5] 	3970
scalar three_caches_scenario_3_links_network.node[5].content_store 	decision_yes[5] 	0
scalar three_caches_scenario_3_links_network.node[5].content_store 	decision_no[5] 	3970
scalar three_caches_scenario_3_links_network.node[6].core_layer 	interests[6] 	3383
scalar three_caches_scenario_3_links_network.node[6].core_layer 	repo_load[6] 	3383
scalar three_caches_scenario_3_links_network.node[6].core_layer 	data[6] 	0
scalar three_caches_scenario_3_links_network.node[6].content_store 	p_hit[6] 	0
scalar three_caches_scenario_3_links_network.node[6].content_store 	hits[6] 	0
scalar three_caches_scenario_3_links_network.node[6].content_store 	misses[6] 	3383
scalar three_caches_scenario_3_links_network.node[6].content_store 	decision_yes[6] 	0
scalar three_caches_scenario_3_links_network.node[6].content_store 	decision_no[6] 	3383
scalar three_caches_scenario_3_links_network.client[0] 	hdistance[0] 	1.693894458252
scalar three_caches_scenario_3_links_network.client[0] 	downloads[0] 	179853
scalar three_caches_scenario_3_links_network.client[0] 	avg_time[0] 	0
scalar three_caches_scenario_3_links_network.client[0] 	interests_sent[0] 	179853
