version 2
run General-3-20140703-16:02:53-5209
attr D tailandrank
attr F nrr
attr R lru
attr a 0.8
attr configname General
attr csize 1e3
attr ctlg 1e5
attr datetime 20140703-16:02:53
attr experiment General
attr inifile omnetpp.ini
attr iterationvars "$net=geant_cost, $rep=1, $priceratiovalue=10, $weights=0.333_0.333_0.334, $lambda=100, $a=0.8, $ctlg=1e5, $F=nrr, $ttl=1000, $D=tailandrank, $xi=1, $R=lru, $csize=1e3, $pricebits=0, $window=60, $variance=0.05, $mytime=1800"
attr iterationvars2 "$net=geant_cost, $rep=1, $priceratiovalue=10, $weights=0.333_0.333_0.334, $lambda=100, $a=0.8, $ctlg=1e5, $F=nrr, $ttl=1000, $D=tailandrank, $xi=1, $R=lru, $csize=1e3, $pricebits=0, $window=60, $variance=0.05, $mytime=1800, $repetition=0"
attr lambda 100
attr measurement "$net=geant_cost, $rep=1, $priceratiovalue=10, $weights=0.333_0.333_0.334, $lambda=100, $a=0.8, $ctlg=1e5, $F=nrr, $ttl=1000, $D=tailandrank, $xi=1, $R=lru, $csize=1e3, $pricebits=0, $window=60, $variance=0.05, $mytime=1800"
attr mytime 1800
attr net geant_cost
attr network "networks.${net=geant_cost, abilene_cost}_network"
attr pricebits 0
attr priceratiovalue 10
attr processid 5209
attr rep 1
attr repetition 0
attr replication #0
attr resultdir results
attr runnumber 3
attr seedset 1
attr ttl 1000
attr variance 0.05
attr weights 0.333_0.333_0.334
attr window 60
attr xi 1

scalar . 	a 	0.8
scalar . 	csize 	1e3
scalar . 	ctlg 	1e5
scalar . 	lambda 	100
scalar . 	mytime 	1800
scalar . 	pricebits 	0
scalar . 	priceratiovalue 	10
scalar . 	rep 	1
scalar . 	ttl 	1000
scalar . 	variance 	0.05
scalar . 	window 	60
scalar . 	xi 	1
scalar geant_cost_network.content_distribution 	repo-0 	22
scalar geant_cost_network.content_distribution 	repo-1 	23
scalar geant_cost_network.content_distribution 	repo-2 	24
scalar geant_cost_network.content_distribution 	client-0 	20
scalar geant_cost_network.content_distribution 	client-1 	10
scalar geant_cost_network.content_distribution 	client-2 	12
scalar geant_cost_network.content_distribution 	client-3 	9
scalar geant_cost_network.content_distribution 	client-4 	5
scalar geant_cost_network.content_distribution 	repo-0_card 	33396
scalar geant_cost_network.content_distribution 	repo-1_card 	33039
scalar geant_cost_network.content_distribution 	repo-2_card 	33565
scalar geant_cost_network.statistics 	repo_popularity[0] 	0.32138981014208
scalar geant_cost_network.statistics 	repo_popularity[1] 	0.31688252633552
scalar geant_cost_network.statistics 	repo_popularity[2] 	0.3617276635224
scalar geant_cost_network.statistics 	stabilization_time 	36120
scalar geant_cost_network.node[7].face$o[4].channel 	price[7] 	0
scalar geant_cost_network.node[7].face$o[4].channel 	represented_price[7] 	0
scalar geant_cost_network.node[8].face$o[3].channel 	price[8] 	0
scalar geant_cost_network.node[8].face$o[3].channel 	represented_price[8] 	0
scalar geant_cost_network.node[21].face$o[5].channel 	price[21] 	0
scalar geant_cost_network.node[21].face$o[5].channel 	represented_price[21] 	0
scalar geant_cost_network.node[22].face$o[1].channel 	price[22] 	0
scalar geant_cost_network.node[22].face$o[1].channel 	represented_price[22] 	0
scalar geant_cost_network.node[23].face$o[1].channel 	price[23] 	1
scalar geant_cost_network.node[23].face$o[1].channel 	represented_price[23] 	1
scalar geant_cost_network.node[24].face$o[1].channel 	price[24] 	10
scalar geant_cost_network.node[24].face$o[1].channel 	represented_price[24] 	10
scalar geant_cost_network.statistics 	p_hit 	0.043602526708166
scalar geant_cost_network.statistics 	interests 	147999.68
scalar geant_cost_network.statistics 	data 	111983.4
scalar geant_cost_network.statistics 	hdistance 	3.9302133270413
scalar geant_cost_network.statistics 	avg_time 	0.005876566662
scalar geant_cost_network.statistics 	downloads 	900344
scalar geant_cost_network.statistics 	total_cost 	2754242
scalar geant_cost_network.statistics 	total_replicas 	100000
scalar geant_cost_network.statistics 	inner_hit 	0.17923371511333
scalar geant_cost_network.statistics 	interests_sent 	900397
scalar geant_cost_network.node[0].core_layer 	interests[0] 	0
scalar geant_cost_network.node[0].core_layer 	data[0] 	0
scalar geant_cost_network.node[0].core_layer 	repo_int[0] 	738972
scalar geant_cost_network.node[0].content_store 	p_hit[0] 	-nan
scalar geant_cost_network.node[0].content_store 	hits[0] 	0
scalar geant_cost_network.node[0].content_store 	misses[0] 	0
scalar geant_cost_network.node[0].content_store 	decision_yes[0] 	0
scalar geant_cost_network.node[0].content_store 	decision_no[0] 	0
scalar geant_cost_network.node[0].content_store 	decision_ratio[0] 	0
scalar geant_cost_network.node[1].core_layer 	interests[1] 	0
scalar geant_cost_network.node[1].core_layer 	data[1] 	0
scalar geant_cost_network.node[1].content_store 	p_hit[1] 	-nan
scalar geant_cost_network.node[1].content_store 	hits[1] 	0
scalar geant_cost_network.node[1].content_store 	misses[1] 	0
scalar geant_cost_network.node[1].content_store 	decision_yes[1] 	0
scalar geant_cost_network.node[1].content_store 	decision_no[1] 	0
scalar geant_cost_network.node[1].content_store 	decision_ratio[1] 	0
scalar geant_cost_network.node[2].core_layer 	interests[2] 	0
scalar geant_cost_network.node[2].core_layer 	data[2] 	0
scalar geant_cost_network.node[2].content_store 	p_hit[2] 	-nan
scalar geant_cost_network.node[2].content_store 	hits[2] 	0
scalar geant_cost_network.node[2].content_store 	misses[2] 	0
scalar geant_cost_network.node[2].content_store 	decision_yes[2] 	0
scalar geant_cost_network.node[2].content_store 	decision_no[2] 	0
scalar geant_cost_network.node[2].content_store 	decision_ratio[2] 	0
scalar geant_cost_network.node[3].core_layer 	interests[3] 	211136
scalar geant_cost_network.node[3].core_layer 	data[3] 	207641
scalar geant_cost_network.node[3].content_store 	p_hit[3] 	0.016548575325856
scalar geant_cost_network.node[3].content_store 	hits[3] 	3494
scalar geant_cost_network.node[3].content_store 	misses[3] 	207642
scalar geant_cost_network.node[3].content_store 	decision_yes[3] 	0
scalar geant_cost_network.node[3].content_store 	decision_no[3] 	207641
scalar geant_cost_network.node[3].content_store 	decision_ratio[3] 	0
scalar geant_cost_network.node[4].core_layer 	interests[4] 	306589
scalar geant_cost_network.node[4].core_layer 	data[4] 	304289
scalar geant_cost_network.node[4].content_store 	p_hit[4] 	0.0074855914595762
scalar geant_cost_network.node[4].content_store 	hits[4] 	2295
scalar geant_cost_network.node[4].content_store 	misses[4] 	304294
scalar geant_cost_network.node[4].content_store 	decision_yes[4] 	0
scalar geant_cost_network.node[4].content_store 	decision_no[4] 	304289
scalar geant_cost_network.node[4].content_store 	decision_ratio[4] 	0
scalar geant_cost_network.node[5].core_layer 	interests[5] 	182793
scalar geant_cost_network.node[5].core_layer 	data[5] 	156731
scalar geant_cost_network.node[5].content_store 	p_hit[5] 	0.14246716230928
scalar geant_cost_network.node[5].content_store 	hits[5] 	26042
scalar geant_cost_network.node[5].content_store 	misses[5] 	156751
scalar geant_cost_network.node[5].content_store 	decision_yes[5] 	0
scalar geant_cost_network.node[5].content_store 	decision_no[5] 	156731
scalar geant_cost_network.node[5].content_store 	decision_ratio[5] 	0
scalar geant_cost_network.node[6].core_layer 	interests[6] 	105502
scalar geant_cost_network.node[6].core_layer 	data[6] 	99251
scalar geant_cost_network.node[6].content_store 	p_hit[6] 	0.059250061610206
scalar geant_cost_network.node[6].content_store 	hits[6] 	6251
scalar geant_cost_network.node[6].content_store 	misses[6] 	99251
scalar geant_cost_network.node[6].content_store 	decision_yes[6] 	0
scalar geant_cost_network.node[6].content_store 	decision_no[6] 	99251
scalar geant_cost_network.node[6].content_store 	decision_ratio[6] 	0
scalar geant_cost_network.node[7].core_layer 	interests[7] 	351418
scalar geant_cost_network.node[7].core_layer 	data[7] 	347026
scalar geant_cost_network.node[7].content_store 	p_hit[7] 	0.01249793692981
scalar geant_cost_network.node[7].content_store 	hits[7] 	4392
scalar geant_cost_network.node[7].content_store 	misses[7] 	347026
scalar geant_cost_network.node[7].content_store 	decision_yes[7] 	0
scalar geant_cost_network.node[7].content_store 	decision_no[7] 	347026
scalar geant_cost_network.node[7].content_store 	decision_ratio[7] 	0
scalar geant_cost_network.node[8].core_layer 	interests[8] 	353764
scalar geant_cost_network.node[8].core_layer 	data[8] 	345632
scalar geant_cost_network.node[8].content_store 	p_hit[8] 	0.022987076129849
scalar geant_cost_network.node[8].content_store 	hits[8] 	8132
scalar geant_cost_network.node[8].content_store 	misses[8] 	345632
scalar geant_cost_network.node[8].content_store 	decision_yes[8] 	0
scalar geant_cost_network.node[8].content_store 	decision_no[8] 	345632
scalar geant_cost_network.node[8].content_store 	decision_ratio[8] 	0
scalar geant_cost_network.node[9].core_layer 	interests[9] 	385675
scalar geant_cost_network.node[9].core_layer 	data[9] 	360246
scalar geant_cost_network.node[9].content_store 	p_hit[9] 	0.065868931094834
scalar geant_cost_network.node[9].content_store 	hits[9] 	25404
scalar geant_cost_network.node[9].content_store 	misses[9] 	360271
scalar geant_cost_network.node[9].content_store 	decision_yes[9] 	0
scalar geant_cost_network.node[9].content_store 	decision_no[9] 	360246
scalar geant_cost_network.node[9].content_store 	decision_ratio[9] 	0
scalar geant_cost_network.node[10].core_layer 	interests[10] 	180152
scalar geant_cost_network.node[10].core_layer 	data[10] 	155495
scalar geant_cost_network.node[10].content_store 	p_hit[10] 	0.13677894222656
scalar geant_cost_network.node[10].content_store 	hits[10] 	24641
scalar geant_cost_network.node[10].content_store 	misses[10] 	155511
scalar geant_cost_network.node[10].content_store 	decision_yes[10] 	0
scalar geant_cost_network.node[10].content_store 	decision_no[10] 	155495
scalar geant_cost_network.node[10].content_store 	decision_ratio[10] 	0
scalar geant_cost_network.node[11].core_layer 	interests[11] 	0
scalar geant_cost_network.node[11].core_layer 	data[11] 	0
scalar geant_cost_network.node[11].content_store 	p_hit[11] 	-nan
scalar geant_cost_network.node[11].content_store 	hits[11] 	0
scalar geant_cost_network.node[11].content_store 	misses[11] 	0
scalar geant_cost_network.node[11].content_store 	decision_yes[11] 	0
scalar geant_cost_network.node[11].content_store 	decision_no[11] 	0
scalar geant_cost_network.node[11].content_store 	decision_ratio[11] 	0
scalar geant_cost_network.node[12].core_layer 	interests[12] 	286457
scalar geant_cost_network.node[12].core_layer 	data[12] 	260960
scalar geant_cost_network.node[12].content_store 	p_hit[12] 	0.088906886548417
scalar geant_cost_network.node[12].content_store 	hits[12] 	25468
scalar geant_cost_network.node[12].content_store 	misses[12] 	260989
scalar geant_cost_network.node[12].content_store 	decision_yes[12] 	0
scalar geant_cost_network.node[12].content_store 	decision_no[12] 	260960
scalar geant_cost_network.node[12].content_store 	decision_ratio[12] 	0
scalar geant_cost_network.node[13].core_layer 	interests[13] 	1456
scalar geant_cost_network.node[13].core_layer 	data[13] 	0
scalar geant_cost_network.node[13].content_store 	p_hit[13] 	1
scalar geant_cost_network.node[13].content_store 	hits[13] 	1456
scalar geant_cost_network.node[13].content_store 	misses[13] 	0
scalar geant_cost_network.node[13].content_store 	decision_yes[13] 	0
scalar geant_cost_network.node[13].content_store 	decision_no[13] 	0
scalar geant_cost_network.node[13].content_store 	decision_ratio[13] 	0
scalar geant_cost_network.node[14].core_layer 	interests[14] 	53803
scalar geant_cost_network.node[14].core_layer 	data[14] 	52940
scalar geant_cost_network.node[14].content_store 	p_hit[14] 	0.016039997769641
scalar geant_cost_network.node[14].content_store 	hits[14] 	863
scalar geant_cost_network.node[14].content_store 	misses[14] 	52940
scalar geant_cost_network.node[14].content_store 	decision_yes[14] 	0
scalar geant_cost_network.node[14].content_store 	decision_no[14] 	52940
scalar geant_cost_network.node[14].content_store 	decision_ratio[14] 	0
scalar geant_cost_network.node[15].core_layer 	interests[15] 	0
scalar geant_cost_network.node[15].core_layer 	data[15] 	0
scalar geant_cost_network.node[15].content_store 	p_hit[15] 	-nan
scalar geant_cost_network.node[15].content_store 	hits[15] 	0
scalar geant_cost_network.node[15].content_store 	misses[15] 	0
scalar geant_cost_network.node[15].content_store 	decision_yes[15] 	0
scalar geant_cost_network.node[15].content_store 	decision_no[15] 	0
scalar geant_cost_network.node[15].content_store 	decision_ratio[15] 	0
scalar geant_cost_network.node[16].core_layer 	interests[16] 	0
scalar geant_cost_network.node[16].core_layer 	data[16] 	0
scalar geant_cost_network.node[16].content_store 	p_hit[16] 	-nan
scalar geant_cost_network.node[16].content_store 	hits[16] 	0
scalar geant_cost_network.node[16].content_store 	misses[16] 	0
scalar geant_cost_network.node[16].content_store 	decision_yes[16] 	0
scalar geant_cost_network.node[16].content_store 	decision_no[16] 	0
scalar geant_cost_network.node[16].content_store 	decision_ratio[16] 	0
scalar geant_cost_network.node[17].core_layer 	interests[17] 	0
scalar geant_cost_network.node[17].core_layer 	data[17] 	0
scalar geant_cost_network.node[17].content_store 	p_hit[17] 	-nan
scalar geant_cost_network.node[17].content_store 	hits[17] 	0
scalar geant_cost_network.node[17].content_store 	misses[17] 	0
scalar geant_cost_network.node[17].content_store 	decision_yes[17] 	0
scalar geant_cost_network.node[17].content_store 	decision_no[17] 	0
scalar geant_cost_network.node[17].content_store 	decision_ratio[17] 	0
scalar geant_cost_network.node[18].core_layer 	interests[18] 	108053
scalar geant_cost_network.node[18].core_layer 	data[18] 	102858
scalar geant_cost_network.node[18].content_store 	p_hit[18] 	0.04807825789196
scalar geant_cost_network.node[18].content_store 	hits[18] 	5195
scalar geant_cost_network.node[18].content_store 	misses[18] 	102858
scalar geant_cost_network.node[18].content_store 	decision_yes[18] 	0
scalar geant_cost_network.node[18].content_store 	decision_no[18] 	102858
scalar geant_cost_network.node[18].content_store 	decision_ratio[18] 	0
scalar geant_cost_network.node[19].core_layer 	interests[19] 	0
scalar geant_cost_network.node[19].core_layer 	data[19] 	0
scalar geant_cost_network.node[19].content_store 	p_hit[19] 	-nan
scalar geant_cost_network.node[19].content_store 	hits[19] 	0
scalar geant_cost_network.node[19].content_store 	misses[19] 	0
scalar geant_cost_network.node[19].content_store 	decision_yes[19] 	0
scalar geant_cost_network.node[19].content_store 	decision_no[19] 	0
scalar geant_cost_network.node[19].content_store 	decision_ratio[19] 	0
scalar geant_cost_network.node[20].core_layer 	interests[20] 	181033
scalar geant_cost_network.node[20].core_layer 	data[20] 	155414
scalar geant_cost_network.node[20].content_store 	p_hit[20] 	0.14146039672325
scalar geant_cost_network.node[20].content_store 	hits[20] 	25609
scalar geant_cost_network.node[20].content_store 	misses[20] 	155424
scalar geant_cost_network.node[20].content_store 	decision_yes[20] 	0
scalar geant_cost_network.node[20].content_store 	decision_no[20] 	155414
scalar geant_cost_network.node[20].content_store 	decision_ratio[20] 	0
scalar geant_cost_network.node[21].core_layer 	interests[21] 	253189
scalar geant_cost_network.node[21].core_layer 	data[21] 	251102
scalar geant_cost_network.node[21].content_store 	p_hit[21] 	0.0082428541524316
scalar geant_cost_network.node[21].content_store 	hits[21] 	2087
scalar geant_cost_network.node[21].content_store 	misses[21] 	251102
scalar geant_cost_network.node[21].content_store 	decision_yes[21] 	0
scalar geant_cost_network.node[21].content_store 	decision_no[21] 	251102
scalar geant_cost_network.node[21].content_store 	decision_ratio[21] 	0
scalar geant_cost_network.node[22].core_layer 	interests[22] 	244648
scalar geant_cost_network.node[22].core_layer 	repo_load[22] 	244648
scalar geant_cost_network.node[22].core_layer 	data[22] 	0
scalar geant_cost_network.node[22].content_store 	p_hit[22] 	0
scalar geant_cost_network.node[22].content_store 	hits[22] 	0
scalar geant_cost_network.node[22].content_store 	misses[22] 	244648
scalar geant_cost_network.node[22].content_store 	decision_yes[22] 	0
scalar geant_cost_network.node[22].content_store 	decision_no[22] 	244648
scalar geant_cost_network.node[22].content_store 	decision_ratio[22] 	0
scalar geant_cost_network.node[23].core_layer 	interests[23] 	243222
scalar geant_cost_network.node[23].core_layer 	repo_load[23] 	243222
scalar geant_cost_network.node[23].core_layer 	data[23] 	0
scalar geant_cost_network.node[23].content_store 	p_hit[23] 	0
scalar geant_cost_network.node[23].content_store 	hits[23] 	0
scalar geant_cost_network.node[23].content_store 	misses[23] 	243222
scalar geant_cost_network.node[23].content_store 	decision_yes[23] 	0
scalar geant_cost_network.node[23].content_store 	decision_no[23] 	243222
scalar geant_cost_network.node[23].content_store 	decision_ratio[23] 	0
scalar geant_cost_network.node[24].core_layer 	interests[24] 	251102
scalar geant_cost_network.node[24].core_layer 	repo_load[24] 	251102
scalar geant_cost_network.node[24].core_layer 	data[24] 	0
scalar geant_cost_network.node[24].content_store 	p_hit[24] 	0
scalar geant_cost_network.node[24].content_store 	hits[24] 	0
scalar geant_cost_network.node[24].content_store 	misses[24] 	251102
scalar geant_cost_network.node[24].content_store 	decision_yes[24] 	0
scalar geant_cost_network.node[24].content_store 	decision_no[24] 	251102
scalar geant_cost_network.node[24].content_store 	decision_ratio[24] 	0
scalar geant_cost_network.client[5] 	hdistance[5] 	3.6166832561321
scalar geant_cost_network.client[5] 	downloads[5] 	179833
scalar geant_cost_network.client[5] 	avg_time[5] 	0.008993880443
scalar geant_cost_network.client[5] 	interests_sent[5] 	179849
scalar geant_cost_network.client[9] 	hdistance[9] 	3.6573997364485
scalar geant_cost_network.client[9] 	downloads[9] 	179851
scalar geant_cost_network.client[9] 	avg_time[9] 	0.003866246113
scalar geant_cost_network.client[9] 	interests_sent[9] 	179858
scalar geant_cost_network.client[10] 	hdistance[10] 	4.53455167207
scalar geant_cost_network.client[10] 	downloads[10] 	180136
scalar geant_cost_network.client[10] 	avg_time[10] 	0.00560656285
scalar geant_cost_network.client[10] 	interests_sent[10] 	180152
scalar geant_cost_network.client[12] 	hdistance[12] 	3.9322632191396
scalar geant_cost_network.client[12] 	downloads[12] 	179607
scalar geant_cost_network.client[12] 	avg_time[12] 	0.004598887791
scalar geant_cost_network.client[12] 	interests_sent[12] 	179611
scalar geant_cost_network.client[20] 	hdistance[20] 	3.9101687514164
scalar geant_cost_network.client[20] 	downloads[20] 	180917
scalar geant_cost_network.client[20] 	avg_time[20] 	0.006317256115
scalar geant_cost_network.client[20] 	interests_sent[20] 	180927
