version 2
run General-4-20140625-11:03:12-10519
attr D fix0.005
attr F nrr
attr R lru
attr a 1
attr configname General
attr csize 1e3
attr ctlg 1e5
attr datetime 20140625-11:03:12
attr experiment General
attr inifile omnetpp.ini
attr iterationvars "$net=abilene_cost, $rep=1, $priceratiovalue=10, $weights=0.333_0.333_0.334, $lambda=100, $a=1, $ctlg=1e5, $F=nrr, $ttl=1000, $D=fix0.005, $xi=1, $R=lru, $csize=1e3, $pricebits=0, $mytime=1800"
attr iterationvars2 "$net=abilene_cost, $rep=1, $priceratiovalue=10, $weights=0.333_0.333_0.334, $lambda=100, $a=1, $ctlg=1e5, $F=nrr, $ttl=1000, $D=fix0.005, $xi=1, $R=lru, $csize=1e3, $pricebits=0, $mytime=1800, $repetition=0"
attr lambda 100
attr measurement "$net=abilene_cost, $rep=1, $priceratiovalue=10, $weights=0.333_0.333_0.334, $lambda=100, $a=1, $ctlg=1e5, $F=nrr, $ttl=1000, $D=fix0.005, $xi=1, $R=lru, $csize=1e3, $pricebits=0, $mytime=1800"
attr mytime 1800
attr net abilene_cost
attr network networks.${net=abilene_cost}_network
attr pricebits 0
attr priceratiovalue 10
attr processid 10519
attr rep 1
attr repetition 0
attr replication #0
attr resultdir results
attr runnumber 4
attr seedset 1
attr ttl 1000
attr weights 0.333_0.333_0.334
attr xi 1

scalar . 	a 	1
scalar . 	csize 	1e3
scalar . 	ctlg 	1e5
scalar . 	lambda 	100
scalar . 	mytime 	1800
scalar . 	pricebits 	0
scalar . 	priceratiovalue 	10
scalar . 	rep 	1
scalar . 	ttl 	1000
scalar . 	xi 	1
scalar abilene_cost_network.content_distribution 	repo-0 	11
scalar abilene_cost_network.content_distribution 	repo-1 	12
scalar abilene_cost_network.content_distribution 	repo-2 	13
scalar abilene_cost_network.content_distribution 	client-0 	5
scalar abilene_cost_network.content_distribution 	client-1 	0
scalar abilene_cost_network.content_distribution 	client-2 	9
scalar abilene_cost_network.content_distribution 	repo-0_card 	33396
scalar abilene_cost_network.content_distribution 	repo-1_card 	33039
scalar abilene_cost_network.content_distribution 	repo-2_card 	33565
scalar abilene_cost_network.statistics 	repo_popularity[0] 	0.28686251265602
scalar abilene_cost_network.statistics 	repo_popularity[1] 	0.2886063426465
scalar abilene_cost_network.statistics 	repo_popularity[2] 	0.42453114469748
scalar abilene_cost_network.statistics 	stabilization_time 	943.8
scalar abilene_cost_network.node[1].face$o[4].channel 	price[1] 	0
scalar abilene_cost_network.node[1].face$o[4].channel 	represented_price[1] 	0
scalar abilene_cost_network.node[7].face$o[4].channel 	price[7] 	0
scalar abilene_cost_network.node[7].face$o[4].channel 	represented_price[7] 	0
scalar abilene_cost_network.node[10].face$o[4].channel 	price[10] 	0
scalar abilene_cost_network.node[10].face$o[4].channel 	represented_price[10] 	0
scalar abilene_cost_network.node[11].face$o[1].channel 	price[11] 	0
scalar abilene_cost_network.node[11].face$o[1].channel 	represented_price[11] 	0
scalar abilene_cost_network.node[12].face$o[1].channel 	price[12] 	1
scalar abilene_cost_network.node[12].face$o[1].channel 	represented_price[12] 	1
scalar abilene_cost_network.node[13].face$o[1].channel 	price[13] 	10
scalar abilene_cost_network.node[13].face$o[1].channel 	represented_price[13] 	10
scalar abilene_cost_network.statistics 	p_hit 	0.19109196519521
scalar abilene_cost_network.statistics 	interests 	110231.14285714
scalar abilene_cost_network.statistics 	data 	71743.714285714
scalar abilene_cost_network.statistics 	hdistance 	2.3163812051772
scalar abilene_cost_network.statistics 	avg_time 	0.009280345226
scalar abilene_cost_network.statistics 	downloads 	538728
scalar abilene_cost_network.statistics 	total_cost 	913320
scalar abilene_cost_network.statistics 	total_replicas 	100000
scalar abilene_cost_network.statistics 	inner_hit 	0.54739868727818
scalar abilene_cost_network.statistics 	interests_sent 	538821
scalar abilene_cost_network.node[0].core_layer 	interests[0] 	183509
scalar abilene_cost_network.node[0].core_layer 	data[0] 	110157
scalar abilene_cost_network.node[0].core_layer 	repo_int[0] 	243829
scalar abilene_cost_network.node[0].content_store 	p_hit[0] 	0.3995662338087
scalar abilene_cost_network.node[0].content_store 	hits[0] 	73324
scalar abilene_cost_network.node[0].content_store 	misses[0] 	110185
scalar abilene_cost_network.node[0].content_store 	decision_yes[0] 	576
scalar abilene_cost_network.node[0].content_store 	decision_no[0] 	109581
scalar abilene_cost_network.node[0].content_store 	decision_ratio[0] 	0.0052289005691876
scalar abilene_cost_network.node[1].core_layer 	interests[1] 	161575
scalar abilene_cost_network.node[1].core_layer 	data[1] 	150410
scalar abilene_cost_network.node[1].content_store 	p_hit[1] 	0.069101036670277
scalar abilene_cost_network.node[1].content_store 	hits[1] 	11165
scalar abilene_cost_network.node[1].content_store 	misses[1] 	150410
scalar abilene_cost_network.node[1].content_store 	decision_yes[1] 	759
scalar abilene_cost_network.node[1].content_store 	decision_no[1] 	149651
scalar abilene_cost_network.node[1].content_store 	decision_ratio[1] 	0.0050462070341068
scalar abilene_cost_network.node[2].core_layer 	interests[2] 	105500
scalar abilene_cost_network.node[2].core_layer 	data[2] 	95646
scalar abilene_cost_network.node[2].content_store 	p_hit[2] 	0.093402843601896
scalar abilene_cost_network.node[2].content_store 	hits[2] 	9854
scalar abilene_cost_network.node[2].content_store 	misses[2] 	95646
scalar abilene_cost_network.node[2].content_store 	decision_yes[2] 	495
scalar abilene_cost_network.node[2].content_store 	decision_no[2] 	95151
scalar abilene_cost_network.node[2].content_store 	decision_ratio[2] 	0.0051753340442883
scalar abilene_cost_network.node[3].core_layer 	interests[3] 	100284
scalar abilene_cost_network.node[3].core_layer 	data[3] 	92215
scalar abilene_cost_network.node[3].content_store 	p_hit[3] 	0.080451517689761
scalar abilene_cost_network.node[3].content_store 	hits[3] 	8068
scalar abilene_cost_network.node[3].content_store 	misses[3] 	92216
scalar abilene_cost_network.node[3].content_store 	decision_yes[3] 	469
scalar abilene_cost_network.node[3].content_store 	decision_no[3] 	91746
scalar abilene_cost_network.node[3].content_store 	decision_ratio[3] 	0.0050859404652172
scalar abilene_cost_network.node[4].core_layer 	interests[4] 	74872
scalar abilene_cost_network.node[4].core_layer 	data[4] 	67298
scalar abilene_cost_network.node[4].content_store 	p_hit[4] 	0.1011459557645
scalar abilene_cost_network.node[4].content_store 	hits[4] 	7573
scalar abilene_cost_network.node[4].content_store 	misses[4] 	67299
scalar abilene_cost_network.node[4].content_store 	decision_yes[4] 	318
scalar abilene_cost_network.node[4].content_store 	decision_no[4] 	66980
scalar abilene_cost_network.node[4].content_store 	decision_ratio[4] 	0.00472525186484
scalar abilene_cost_network.node[5].core_layer 	interests[5] 	180286
scalar abilene_cost_network.node[5].core_layer 	data[5] 	109109
scalar abilene_cost_network.node[5].content_store 	p_hit[5] 	0.3946008009496
scalar abilene_cost_network.node[5].content_store 	hits[5] 	71141
scalar abilene_cost_network.node[5].content_store 	misses[5] 	109145
scalar abilene_cost_network.node[5].content_store 	decision_yes[5] 	561
scalar abilene_cost_network.node[5].content_store 	decision_no[5] 	108548
scalar abilene_cost_network.node[5].content_store 	decision_ratio[5] 	0.0051416473434822
scalar abilene_cost_network.node[6].core_layer 	interests[6] 	37462
scalar abilene_cost_network.node[6].core_layer 	data[6] 	32076
scalar abilene_cost_network.node[6].content_store 	p_hit[6] 	0.1437723559874
scalar abilene_cost_network.node[6].content_store 	hits[6] 	5386
scalar abilene_cost_network.node[6].content_store 	misses[6] 	32076
scalar abilene_cost_network.node[6].content_store 	decision_yes[6] 	157
scalar abilene_cost_network.node[6].content_store 	decision_no[6] 	31919
scalar abilene_cost_network.node[6].content_store 	decision_ratio[6] 	0.0048946252649956
scalar abilene_cost_network.node[7].core_layer 	interests[7] 	88153
scalar abilene_cost_network.node[7].core_layer 	data[7] 	80912
scalar abilene_cost_network.node[7].content_store 	p_hit[7] 	0.082141277097773
scalar abilene_cost_network.node[7].content_store 	hits[7] 	7241
scalar abilene_cost_network.node[7].content_store 	misses[7] 	80912
scalar abilene_cost_network.node[7].content_store 	decision_yes[7] 	377
scalar abilene_cost_network.node[7].content_store 	decision_no[7] 	80535
scalar abilene_cost_network.node[7].content_store 	decision_ratio[7] 	0.004659383033419
scalar abilene_cost_network.node[8].core_layer 	interests[8] 	46496
scalar abilene_cost_network.node[8].core_layer 	data[8] 	36271
scalar abilene_cost_network.node[8].content_store 	p_hit[8] 	0.21988988300069
scalar abilene_cost_network.node[8].content_store 	hits[8] 	10224
scalar abilene_cost_network.node[8].content_store 	misses[8] 	36272
scalar abilene_cost_network.node[8].content_store 	decision_yes[8] 	185
scalar abilene_cost_network.node[8].content_store 	decision_no[8] 	36086
scalar abilene_cost_network.node[8].content_store 	decision_ratio[8] 	0.0051004935072096
scalar abilene_cost_network.node[9].core_layer 	interests[9] 	183762
scalar abilene_cost_network.node[9].core_layer 	data[9] 	108767
scalar abilene_cost_network.node[9].content_store 	p_hit[9] 	0.40795158955606
scalar abilene_cost_network.node[9].content_store 	hits[9] 	74966
scalar abilene_cost_network.node[9].content_store 	misses[9] 	108796
scalar abilene_cost_network.node[9].content_store 	decision_yes[9] 	494
scalar abilene_cost_network.node[9].content_store 	decision_no[9] 	108273
scalar abilene_cost_network.node[9].content_store 	decision_ratio[9] 	0.0045418187501724
scalar abilene_cost_network.node[10].core_layer 	interests[10] 	137508
scalar abilene_cost_network.node[10].core_layer 	data[10] 	121551
scalar abilene_cost_network.node[10].content_store 	p_hit[10] 	0.116051429735
scalar abilene_cost_network.node[10].content_store 	hits[10] 	15958
scalar abilene_cost_network.node[10].content_store 	misses[10] 	121550
scalar abilene_cost_network.node[10].content_store 	decision_yes[10] 	595
scalar abilene_cost_network.node[10].content_store 	decision_no[10] 	120956
scalar abilene_cost_network.node[10].content_store 	decision_ratio[10] 	0.00489506462308
scalar abilene_cost_network.node[11].core_layer 	interests[11] 	84376
scalar abilene_cost_network.node[11].core_layer 	repo_load[11] 	84376
scalar abilene_cost_network.node[11].core_layer 	data[11] 	0
scalar abilene_cost_network.node[11].content_store 	p_hit[11] 	0
scalar abilene_cost_network.node[11].content_store 	hits[11] 	0
scalar abilene_cost_network.node[11].content_store 	misses[11] 	84376
scalar abilene_cost_network.node[11].content_store 	decision_yes[11] 	0
scalar abilene_cost_network.node[11].content_store 	decision_no[11] 	84376
scalar abilene_cost_network.node[11].content_store 	decision_ratio[11] 	0
scalar abilene_cost_network.node[12].core_layer 	interests[12] 	75690
scalar abilene_cost_network.node[12].core_layer 	repo_load[12] 	75690
scalar abilene_cost_network.node[12].core_layer 	data[12] 	0
scalar abilene_cost_network.node[12].content_store 	p_hit[12] 	0
scalar abilene_cost_network.node[12].content_store 	hits[12] 	0
scalar abilene_cost_network.node[12].content_store 	misses[12] 	75690
scalar abilene_cost_network.node[12].content_store 	decision_yes[12] 	0
scalar abilene_cost_network.node[12].content_store 	decision_no[12] 	75690
scalar abilene_cost_network.node[12].content_store 	decision_ratio[12] 	0
scalar abilene_cost_network.node[13].core_layer 	interests[13] 	83763
scalar abilene_cost_network.node[13].core_layer 	repo_load[13] 	83763
scalar abilene_cost_network.node[13].core_layer 	data[13] 	0
scalar abilene_cost_network.node[13].content_store 	p_hit[13] 	0
scalar abilene_cost_network.node[13].content_store 	hits[13] 	0
scalar abilene_cost_network.node[13].content_store 	misses[13] 	83763
scalar abilene_cost_network.node[13].content_store 	decision_yes[13] 	0
scalar abilene_cost_network.node[13].content_store 	decision_no[13] 	83763
scalar abilene_cost_network.node[13].content_store 	decision_ratio[13] 	0
scalar abilene_cost_network.client[0] 	hdistance[0] 	2.095454671819
scalar abilene_cost_network.client[0] 	downloads[0] 	179855
scalar abilene_cost_network.client[0] 	avg_time[0] 	0.008902867285
scalar abilene_cost_network.client[0] 	interests_sent[0] 	179883
scalar abilene_cost_network.client[5] 	hdistance[5] 	2.9333437116028
scalar abilene_cost_network.client[5] 	downloads[5] 	179863
scalar abilene_cost_network.client[5] 	avg_time[5] 	0.010895507684
scalar abilene_cost_network.client[5] 	interests_sent[5] 	179899
scalar abilene_cost_network.client[9] 	hdistance[9] 	1.9203452321099
scalar abilene_cost_network.client[9] 	downloads[9] 	179010
scalar abilene_cost_network.client[9] 	avg_time[9] 	0.008042660709
scalar abilene_cost_network.client[9] 	interests_sent[9] 	179039
