version 2
run General-56-20140509-14:48:35-3813
attr D costprobtailperf
attr F nrr
attr R lru
attr a 1
attr configname General
attr csize 1e3
attr ctlg 1e5
attr datetime 20140509-14:48:35
attr experiment General
attr inifile omnetpp.ini
attr iterationvars "$net=one_cache_scenario_3_links, $rep=19, $priceratiovalue=5, $weights=0.333_0.333_0.334, $a=1, $ctlg=1e5, $F=nrr, $ttl=1000, $D=costprobtailperf, $xi=0, $R=lru, $csize=1e3"
attr iterationvars2 "$net=one_cache_scenario_3_links, $rep=19, $priceratiovalue=5, $weights=0.333_0.333_0.334, $a=1, $ctlg=1e5, $F=nrr, $ttl=1000, $D=costprobtailperf, $xi=0, $R=lru, $csize=1e3, $repetition=0"
attr measurement "$net=one_cache_scenario_3_links, $rep=19, $priceratiovalue=5, $weights=0.333_0.333_0.334, $a=1, $ctlg=1e5, $F=nrr, $ttl=1000, $D=costprobtailperf, $xi=0, $R=lru, $csize=1e3"
attr net one_cache_scenario_3_links
attr network networks.${net=one_cache_scenario_3_links}_network
attr priceratiovalue 5
attr processid 3813
attr rep 19
attr repetition 0
attr replication #0
attr resultdir results
attr runnumber 56
attr seedset 19
attr ttl 1000
attr weights 0.333_0.333_0.334
attr xi 0

scalar . 	a 	1
scalar . 	csize 	1e3
scalar . 	ctlg 	1e5
scalar . 	priceratiovalue 	5
scalar . 	rep 	19
scalar . 	ttl 	1000
scalar . 	xi 	0
scalar one_cache_scenario_3_links_network.content_distribution 	repo-0 	4
scalar one_cache_scenario_3_links_network.content_distribution 	repo-1 	5
scalar one_cache_scenario_3_links_network.content_distribution 	repo-2 	6
scalar one_cache_scenario_3_links_network.content_distribution 	client-0 	0
scalar one_cache_scenario_3_links_network.content_distribution 	repo-0_card 	33368
scalar one_cache_scenario_3_links_network.content_distribution 	repo-1_card 	33389
scalar one_cache_scenario_3_links_network.content_distribution 	repo-2_card 	33243
scalar one_cache_scenario_3_links_network.statistics 	p_hit 	0.30253399717619
scalar one_cache_scenario_3_links_network.statistics 	interests 	48060.714285714
scalar one_cache_scenario_3_links_network.statistics 	data 	22347.142857143
scalar one_cache_scenario_3_links_network.statistics 	hdistance 	0.86907969665824
scalar one_cache_scenario_3_links_network.statistics 	avg_time 	0
scalar one_cache_scenario_3_links_network.statistics 	downloads 	179995
scalar one_cache_scenario_3_links_network.statistics 	total_cost 	129351
scalar one_cache_scenario_3_links_network.statistics 	total_replicas 	100000
scalar one_cache_scenario_3_links_network.statistics 	interests_sent 	179995
scalar one_cache_scenario_3_links_network.node[0].core_layer 	interests[0] 	179995
scalar one_cache_scenario_3_links_network.node[0].core_layer 	data[0] 	78215
scalar one_cache_scenario_3_links_network.node[0].core_layer 	repo_int[0] 	78215
scalar one_cache_scenario_3_links_network.node[0].content_store 	p_hit[0] 	0.56546015167088
scalar one_cache_scenario_3_links_network.node[0].content_store 	hits[0] 	101780
scalar one_cache_scenario_3_links_network.node[0].content_store 	misses[0] 	78215
scalar one_cache_scenario_3_links_network.node[0].content_store 	decision_yes[0] 	1263
scalar one_cache_scenario_3_links_network.node[0].content_store 	decision_no[0] 	76952
scalar one_cache_scenario_3_links_network.node[0].content_store 	decision_ratio[0] 	0.016147797737007
scalar one_cache_scenario_3_links_network.node[0].content_store 	correction_factor[0] 	6.8996781270002e-317
scalar one_cache_scenario_3_links_network.node[0].content_store 	xi[0] 	0
scalar one_cache_scenario_3_links_network.node[1].core_layer 	interests[1] 	33152
scalar one_cache_scenario_3_links_network.node[1].core_layer 	data[1] 	33152
scalar one_cache_scenario_3_links_network.node[1].content_store 	p_hit[1] 	0
scalar one_cache_scenario_3_links_network.node[1].content_store 	hits[1] 	0
scalar one_cache_scenario_3_links_network.node[1].content_store 	misses[1] 	33152
scalar one_cache_scenario_3_links_network.node[1].content_store 	decision_yes[1] 	0
scalar one_cache_scenario_3_links_network.node[1].content_store 	decision_no[1] 	33152
scalar one_cache_scenario_3_links_network.node[1].content_store 	decision_ratio[1] 	0
scalar one_cache_scenario_3_links_network.node[2].core_layer 	interests[2] 	23991
scalar one_cache_scenario_3_links_network.node[2].core_layer 	data[2] 	23991
scalar one_cache_scenario_3_links_network.node[2].content_store 	p_hit[2] 	0
scalar one_cache_scenario_3_links_network.node[2].content_store 	hits[2] 	0
scalar one_cache_scenario_3_links_network.node[2].content_store 	misses[2] 	23991
scalar one_cache_scenario_3_links_network.node[2].content_store 	decision_yes[2] 	0
scalar one_cache_scenario_3_links_network.node[2].content_store 	decision_no[2] 	23991
scalar one_cache_scenario_3_links_network.node[2].content_store 	decision_ratio[2] 	0
scalar one_cache_scenario_3_links_network.node[3].core_layer 	interests[3] 	21072
scalar one_cache_scenario_3_links_network.node[3].core_layer 	data[3] 	21072
scalar one_cache_scenario_3_links_network.node[3].content_store 	p_hit[3] 	0
scalar one_cache_scenario_3_links_network.node[3].content_store 	hits[3] 	0
scalar one_cache_scenario_3_links_network.node[3].content_store 	misses[3] 	21072
scalar one_cache_scenario_3_links_network.node[3].content_store 	decision_yes[3] 	0
scalar one_cache_scenario_3_links_network.node[3].content_store 	decision_no[3] 	21072
scalar one_cache_scenario_3_links_network.node[3].content_store 	decision_ratio[3] 	0
scalar one_cache_scenario_3_links_network.node[4].core_layer 	interests[4] 	33152
scalar one_cache_scenario_3_links_network.node[4].core_layer 	repo_load[4] 	33152
scalar one_cache_scenario_3_links_network.node[4].core_layer 	data[4] 	0
scalar one_cache_scenario_3_links_network.node[4].content_store 	p_hit[4] 	0
scalar one_cache_scenario_3_links_network.node[4].content_store 	hits[4] 	0
scalar one_cache_scenario_3_links_network.node[4].content_store 	misses[4] 	33152
scalar one_cache_scenario_3_links_network.node[4].content_store 	decision_yes[4] 	0
scalar one_cache_scenario_3_links_network.node[4].content_store 	decision_no[4] 	33152
scalar one_cache_scenario_3_links_network.node[4].content_store 	decision_ratio[4] 	0
scalar one_cache_scenario_3_links_network.node[5].core_layer 	interests[5] 	23991
scalar one_cache_scenario_3_links_network.node[5].core_layer 	repo_load[5] 	23991
scalar one_cache_scenario_3_links_network.node[5].core_layer 	data[5] 	0
scalar one_cache_scenario_3_links_network.node[5].content_store 	p_hit[5] 	0
scalar one_cache_scenario_3_links_network.node[5].content_store 	hits[5] 	0
scalar one_cache_scenario_3_links_network.node[5].content_store 	misses[5] 	23991
scalar one_cache_scenario_3_links_network.node[5].content_store 	decision_yes[5] 	0
scalar one_cache_scenario_3_links_network.node[5].content_store 	decision_no[5] 	23991
scalar one_cache_scenario_3_links_network.node[5].content_store 	decision_ratio[5] 	0
scalar one_cache_scenario_3_links_network.node[6].core_layer 	interests[6] 	21072
scalar one_cache_scenario_3_links_network.node[6].core_layer 	repo_load[6] 	21072
scalar one_cache_scenario_3_links_network.node[6].core_layer 	data[6] 	0
scalar one_cache_scenario_3_links_network.node[6].content_store 	p_hit[6] 	0
scalar one_cache_scenario_3_links_network.node[6].content_store 	hits[6] 	0
scalar one_cache_scenario_3_links_network.node[6].content_store 	misses[6] 	21072
scalar one_cache_scenario_3_links_network.node[6].content_store 	decision_yes[6] 	0
scalar one_cache_scenario_3_links_network.node[6].content_store 	decision_no[6] 	21072
scalar one_cache_scenario_3_links_network.node[6].content_store 	decision_ratio[6] 	0
scalar one_cache_scenario_3_links_network.client[0] 	hdistance[0] 	0.86907969665824
scalar one_cache_scenario_3_links_network.client[0] 	downloads[0] 	179995
scalar one_cache_scenario_3_links_network.client[0] 	avg_time[0] 	0
scalar one_cache_scenario_3_links_network.client[0] 	interests_sent[0] 	179995
