version 2
run General-201-20140502-01:26:12-9079
attr D fix0.001
attr F nrr
attr R lru
attr a 1
attr configname General
attr csize 1e3
attr ctlg 1e5
attr datetime 20140502-01:26:12
attr experiment General
attr inifile omnetpp.ini
attr iterationvars "$net=three_caches_scenario_3_links, $rep=1, $priceratiovalue=2, $weights=0.2_0.4_0.4, $a=1, $ctlg=1e5, $F=nrr, $ttl=1000, $D=fix0.001, $xi=1, $R=lru, $csize=1e3"
attr iterationvars2 "$net=three_caches_scenario_3_links, $rep=1, $priceratiovalue=2, $weights=0.2_0.4_0.4, $a=1, $ctlg=1e5, $F=nrr, $ttl=1000, $D=fix0.001, $xi=1, $R=lru, $csize=1e3, $repetition=0"
attr measurement "$net=three_caches_scenario_3_links, $rep=1, $priceratiovalue=2, $weights=0.2_0.4_0.4, $a=1, $ctlg=1e5, $F=nrr, $ttl=1000, $D=fix0.001, $xi=1, $R=lru, $csize=1e3"
attr net three_caches_scenario_3_links
attr network networks.${net=three_caches_scenario_3_links}_network
attr priceratiovalue 2
attr processid 9079
attr rep 1
attr repetition 0
attr replication #0
attr resultdir results
attr runnumber 201
attr seedset 1
attr ttl 1000
attr weights 0.2_0.4_0.4
attr xi 1

scalar . 	a 	1
scalar . 	csize 	1e3
scalar . 	ctlg 	1e5
scalar . 	priceratiovalue 	2
scalar . 	rep 	1
scalar . 	ttl 	1000
scalar . 	xi 	1
scalar three_caches_scenario_3_links_network.content_distribution 	repo-0 	4
scalar three_caches_scenario_3_links_network.content_distribution 	repo-1 	5
scalar three_caches_scenario_3_links_network.content_distribution 	repo-2 	6
scalar three_caches_scenario_3_links_network.content_distribution 	client-0 	0
scalar three_caches_scenario_3_links_network.content_distribution 	repo-0_card 	19939
scalar three_caches_scenario_3_links_network.content_distribution 	repo-1_card 	40008
scalar three_caches_scenario_3_links_network.content_distribution 	repo-2_card 	40053
scalar three_caches_scenario_3_links_network.statistics 	p_hit 	0.27281791577827
scalar three_caches_scenario_3_links_network.statistics 	interests 	50719.857142857
scalar three_caches_scenario_3_links_network.statistics 	data 	24990.142857143
scalar three_caches_scenario_3_links_network.statistics 	hdistance 	1.3373920092389
scalar three_caches_scenario_3_links_network.statistics 	avg_time 	0
scalar three_caches_scenario_3_links_network.statistics 	downloads 	180108
scalar three_caches_scenario_3_links_network.statistics 	total_cost 	99348
scalar three_caches_scenario_3_links_network.statistics 	total_replicas 	100000
scalar three_caches_scenario_3_links_network.statistics 	interests_sent 	180108
scalar three_caches_scenario_3_links_network.node[0].core_layer 	interests[0] 	180108
scalar three_caches_scenario_3_links_network.node[0].core_layer 	data[0] 	91684
scalar three_caches_scenario_3_links_network.node[0].core_layer 	repo_int[0] 	83247
scalar three_caches_scenario_3_links_network.node[0].content_store 	p_hit[0] 	0.49094987451973
scalar three_caches_scenario_3_links_network.node[0].content_store 	hits[0] 	88424
scalar three_caches_scenario_3_links_network.node[0].content_store 	misses[0] 	91684
scalar three_caches_scenario_3_links_network.node[0].content_store 	decision_yes[0] 	93
scalar three_caches_scenario_3_links_network.node[0].content_store 	decision_no[0] 	91591
scalar three_caches_scenario_3_links_network.node[1].core_layer 	interests[1] 	17303
scalar three_caches_scenario_3_links_network.node[1].core_layer 	data[1] 	17303
scalar three_caches_scenario_3_links_network.node[1].content_store 	p_hit[1] 	0
scalar three_caches_scenario_3_links_network.node[1].content_store 	hits[1] 	0
scalar three_caches_scenario_3_links_network.node[1].content_store 	misses[1] 	17303
scalar three_caches_scenario_3_links_network.node[1].content_store 	decision_yes[1] 	0
scalar three_caches_scenario_3_links_network.node[1].content_store 	decision_no[1] 	17303
scalar three_caches_scenario_3_links_network.node[2].core_layer 	interests[2] 	36848
scalar three_caches_scenario_3_links_network.node[2].core_layer 	data[2] 	32540
scalar three_caches_scenario_3_links_network.node[2].content_store 	p_hit[2] 	0.11691272253582
scalar three_caches_scenario_3_links_network.node[2].content_store 	hits[2] 	4308
scalar three_caches_scenario_3_links_network.node[2].content_store 	misses[2] 	32540
scalar three_caches_scenario_3_links_network.node[2].content_store 	decision_yes[2] 	32
scalar three_caches_scenario_3_links_network.node[2].content_store 	decision_no[2] 	32508
scalar three_caches_scenario_3_links_network.node[3].core_layer 	interests[3] 	37533
scalar three_caches_scenario_3_links_network.node[3].core_layer 	data[3] 	33404
scalar three_caches_scenario_3_links_network.node[3].content_store 	p_hit[3] 	0.11000985799163
scalar three_caches_scenario_3_links_network.node[3].content_store 	hits[3] 	4129
scalar three_caches_scenario_3_links_network.node[3].content_store 	misses[3] 	33404
scalar three_caches_scenario_3_links_network.node[3].content_store 	decision_yes[3] 	30
scalar three_caches_scenario_3_links_network.node[3].content_store 	decision_no[3] 	33374
scalar three_caches_scenario_3_links_network.node[4].core_layer 	interests[4] 	17303
scalar three_caches_scenario_3_links_network.node[4].core_layer 	repo_load[4] 	17303
scalar three_caches_scenario_3_links_network.node[4].core_layer 	data[4] 	0
scalar three_caches_scenario_3_links_network.node[4].content_store 	p_hit[4] 	0
scalar three_caches_scenario_3_links_network.node[4].content_store 	hits[4] 	0
scalar three_caches_scenario_3_links_network.node[4].content_store 	misses[4] 	17303
scalar three_caches_scenario_3_links_network.node[4].content_store 	decision_yes[4] 	0
scalar three_caches_scenario_3_links_network.node[4].content_store 	decision_no[4] 	17303
scalar three_caches_scenario_3_links_network.node[5].core_layer 	interests[5] 	32540
scalar three_caches_scenario_3_links_network.node[5].core_layer 	repo_load[5] 	32540
scalar three_caches_scenario_3_links_network.node[5].core_layer 	data[5] 	0
scalar three_caches_scenario_3_links_network.node[5].content_store 	p_hit[5] 	0
scalar three_caches_scenario_3_links_network.node[5].content_store 	hits[5] 	0
scalar three_caches_scenario_3_links_network.node[5].content_store 	misses[5] 	32540
scalar three_caches_scenario_3_links_network.node[5].content_store 	decision_yes[5] 	0
scalar three_caches_scenario_3_links_network.node[5].content_store 	decision_no[5] 	32540
scalar three_caches_scenario_3_links_network.node[6].core_layer 	interests[6] 	33404
scalar three_caches_scenario_3_links_network.node[6].core_layer 	repo_load[6] 	33404
scalar three_caches_scenario_3_links_network.node[6].core_layer 	data[6] 	0
scalar three_caches_scenario_3_links_network.node[6].content_store 	p_hit[6] 	0
scalar three_caches_scenario_3_links_network.node[6].content_store 	hits[6] 	0
scalar three_caches_scenario_3_links_network.node[6].content_store 	misses[6] 	33404
scalar three_caches_scenario_3_links_network.node[6].content_store 	decision_yes[6] 	0
scalar three_caches_scenario_3_links_network.node[6].content_store 	decision_no[6] 	33404
scalar three_caches_scenario_3_links_network.client[0] 	hdistance[0] 	1.3373920092389
scalar three_caches_scenario_3_links_network.client[0] 	downloads[0] 	180108
scalar three_caches_scenario_3_links_network.client[0] 	avg_time[0] 	0
scalar three_caches_scenario_3_links_network.client[0] 	interests_sent[0] 	180108
