version 2
run General-5879-20140423-21:00:32-676
attr D costprob0.01
attr F nrr
attr R lru
attr a 0
attr configname General
attr csize 2
attr ctlg 10^3
attr datetime 20140423-21:00:32
attr experiment General
attr inifile omnetpp.ini
attr iterationvars "$net=simple_scenario, $rep=17, $priceratiovalue=4, $a=0, $ctlg=10^3, $F=nrr, $ttl=1000, $D=costprob0.01, $R=lru, $csize=2"
attr iterationvars2 "$net=simple_scenario, $rep=17, $priceratiovalue=4, $a=0, $ctlg=10^3, $F=nrr, $ttl=1000, $D=costprob0.01, $R=lru, $csize=2, $repetition=0"
attr measurement "$net=simple_scenario, $rep=17, $priceratiovalue=4, $a=0, $ctlg=10^3, $F=nrr, $ttl=1000, $D=costprob0.01, $R=lru, $csize=2"
attr net simple_scenario
attr network networks.${net=simple_scenario}_network
attr priceratiovalue 4
attr processid 676
attr rep 17
attr repetition 0
attr replication #0
attr resultdir results
attr runnumber 5879
attr seedset 17
attr ttl 1000

scalar . 	a 	0
scalar . 	csize 	2
scalar . 	priceratiovalue 	4
scalar . 	rep 	17
scalar . 	ttl 	1000
scalar simple_scenario_network.content_distribution 	repo-0 	3
scalar simple_scenario_network.content_distribution 	repo-1 	4
scalar simple_scenario_network.content_distribution 	client-0 	0
scalar simple_scenario_network.content_distribution 	repo-0_card 	481
scalar simple_scenario_network.content_distribution 	repo-1_card 	519
scalar simple_scenario_network.statistics 	p_hit 	0.0019422244050542
scalar simple_scenario_network.statistics 	interests 	107505.6
scalar simple_scenario_network.statistics 	data 	71577.8
scalar simple_scenario_network.statistics 	hdistance 	2.9864561704307
scalar simple_scenario_network.statistics 	avg_time 	0.001999735827
scalar simple_scenario_network.statistics 	downloads 	179639
scalar simple_scenario_network.statistics 	total_cost 	91264
scalar simple_scenario_network.node[0].core_layer 	interests[0] 	179639
scalar simple_scenario_network.node[0].core_layer 	data[0] 	179294
scalar simple_scenario_network.node[0].core_layer 	repo_int[0] 	178595
scalar simple_scenario_network.node[0].content_store 	p_hit[0] 	0.0019205183729591
scalar simple_scenario_network.node[0].content_store 	hits[0] 	345
scalar simple_scenario_network.node[0].content_store 	misses[0] 	179294
scalar simple_scenario_network.node[1].core_layer 	interests[1] 	86385
scalar simple_scenario_network.node[1].core_layer 	data[1] 	86018
scalar simple_scenario_network.node[1].content_store 	p_hit[1] 	0.0042484227585808
scalar simple_scenario_network.node[1].content_store 	hits[1] 	367
scalar simple_scenario_network.node[1].content_store 	misses[1] 	86018
scalar simple_scenario_network.node[2].core_layer 	interests[2] 	92909
scalar simple_scenario_network.node[2].core_layer 	data[2] 	92577
scalar simple_scenario_network.node[2].content_store 	p_hit[2] 	0.0035733890150577
scalar simple_scenario_network.node[2].content_store 	hits[2] 	332
scalar simple_scenario_network.node[2].content_store 	misses[2] 	92577
scalar simple_scenario_network.node[3].core_layer 	interests[3] 	86018
scalar simple_scenario_network.node[3].core_layer 	repo_load[3] 	86018
scalar simple_scenario_network.node[3].core_layer 	data[3] 	0
scalar simple_scenario_network.node[3].content_store 	p_hit[3] 	0
scalar simple_scenario_network.node[3].content_store 	hits[3] 	0
scalar simple_scenario_network.node[3].content_store 	misses[3] 	86018
scalar simple_scenario_network.node[4].core_layer 	interests[4] 	92577
scalar simple_scenario_network.node[4].core_layer 	repo_load[4] 	92577
scalar simple_scenario_network.node[4].core_layer 	data[4] 	0
scalar simple_scenario_network.node[4].content_store 	p_hit[4] 	0
scalar simple_scenario_network.node[4].content_store 	hits[4] 	0
scalar simple_scenario_network.node[4].content_store 	misses[4] 	92577
scalar simple_scenario_network.client[0] 	hdistance[0] 	2.9864561704307
scalar simple_scenario_network.client[0] 	downloads[0] 	179639
scalar simple_scenario_network.client[0] 	avg_time[0] 	0.001999735827
