version 2
run General-2639-20140423-19:38:41-28777
attr D costprob0.01
attr F nrr
attr R lru
attr a 0
attr configname General
attr csize 2
attr ctlg 10^3
attr datetime 20140423-19:38:41
attr experiment General
attr inifile omnetpp.ini
attr iterationvars "$net=simple_scenario, $rep=8, $priceratiovalue=4, $a=0, $ctlg=10^3, $F=nrr, $ttl=1000, $D=costprob0.01, $R=lru, $csize=2"
attr iterationvars2 "$net=simple_scenario, $rep=8, $priceratiovalue=4, $a=0, $ctlg=10^3, $F=nrr, $ttl=1000, $D=costprob0.01, $R=lru, $csize=2, $repetition=0"
attr measurement "$net=simple_scenario, $rep=8, $priceratiovalue=4, $a=0, $ctlg=10^3, $F=nrr, $ttl=1000, $D=costprob0.01, $R=lru, $csize=2"
attr net simple_scenario
attr network networks.${net=simple_scenario}_network
attr priceratiovalue 4
attr processid 28777
attr rep 8
attr repetition 0
attr replication #0
attr resultdir results
attr runnumber 2639
attr seedset 8
attr ttl 1000

scalar . 	a 	0
scalar . 	csize 	2
scalar . 	priceratiovalue 	4
scalar . 	rep 	8
scalar . 	ttl 	1000
scalar simple_scenario_network.content_distribution 	repo-0 	3
scalar simple_scenario_network.content_distribution 	repo-1 	4
scalar simple_scenario_network.content_distribution 	client-0 	0
scalar simple_scenario_network.content_distribution 	repo-0_card 	485
scalar simple_scenario_network.content_distribution 	repo-1_card 	515
scalar simple_scenario_network.statistics 	p_hit 	0.0019025014370747
scalar simple_scenario_network.statistics 	interests 	107858
scalar simple_scenario_network.statistics 	data 	71814.4
scalar simple_scenario_network.statistics 	hdistance 	2.9867382100468
scalar simple_scenario_network.statistics 	avg_time 	0.001999733373
scalar simple_scenario_network.statistics 	downloads 	180217
scalar simple_scenario_network.statistics 	total_cost 	91029
scalar simple_scenario_network.node[0].core_layer 	interests[0] 	180218
scalar simple_scenario_network.node[0].core_layer 	data[0] 	179880
scalar simple_scenario_network.node[0].core_layer 	repo_int[0] 	179192
scalar simple_scenario_network.node[0].content_store 	p_hit[0] 	0.0018755063312211
scalar simple_scenario_network.node[0].content_store 	hits[0] 	338
scalar simple_scenario_network.node[0].content_store 	misses[0] 	179880
scalar simple_scenario_network.node[1].core_layer 	interests[1] 	87532
scalar simple_scenario_network.node[1].core_layer 	data[1] 	87207
scalar simple_scenario_network.node[1].content_store 	p_hit[1] 	0.0037129278435315
scalar simple_scenario_network.node[1].content_store 	hits[1] 	325
scalar simple_scenario_network.node[1].content_store 	misses[1] 	87207
scalar simple_scenario_network.node[2].core_layer 	interests[2] 	92348
scalar simple_scenario_network.node[2].core_layer 	data[2] 	91985
scalar simple_scenario_network.node[2].content_store 	p_hit[2] 	0.0039307835578464
scalar simple_scenario_network.node[2].content_store 	hits[2] 	363
scalar simple_scenario_network.node[2].content_store 	misses[2] 	91985
scalar simple_scenario_network.node[3].core_layer 	interests[3] 	87207
scalar simple_scenario_network.node[3].core_layer 	repo_load[3] 	87207
scalar simple_scenario_network.node[3].core_layer 	data[3] 	0
scalar simple_scenario_network.node[3].content_store 	p_hit[3] 	0
scalar simple_scenario_network.node[3].content_store 	hits[3] 	0
scalar simple_scenario_network.node[3].content_store 	misses[3] 	87207
scalar simple_scenario_network.node[4].core_layer 	interests[4] 	91985
scalar simple_scenario_network.node[4].core_layer 	repo_load[4] 	91985
scalar simple_scenario_network.node[4].core_layer 	data[4] 	0
scalar simple_scenario_network.node[4].content_store 	p_hit[4] 	0
scalar simple_scenario_network.node[4].content_store 	hits[4] 	0
scalar simple_scenario_network.node[4].content_store 	misses[4] 	91985
scalar simple_scenario_network.client[0] 	hdistance[0] 	2.9867382100468
scalar simple_scenario_network.client[0] 	downloads[0] 	180217
scalar simple_scenario_network.client[0] 	avg_time[0] 	0.001999733373
