version 2
run General-1381-20140502-03:41:55-10298
attr D fix0.1
attr F nrr
attr R lru
attr a 1
attr configname General
attr csize 1e3
attr ctlg 1e5
attr datetime 20140502-03:41:55
attr experiment General
attr inifile omnetpp.ini
attr iterationvars "$net=three_caches_scenario_3_links, $rep=3, $priceratiovalue=2, $weights=0.7_0.15_0.15, $a=1, $ctlg=1e5, $F=nrr, $ttl=1000, $D=fix0.1, $xi=1, $R=lru, $csize=1e3"
attr iterationvars2 "$net=three_caches_scenario_3_links, $rep=3, $priceratiovalue=2, $weights=0.7_0.15_0.15, $a=1, $ctlg=1e5, $F=nrr, $ttl=1000, $D=fix0.1, $xi=1, $R=lru, $csize=1e3, $repetition=0"
attr measurement "$net=three_caches_scenario_3_links, $rep=3, $priceratiovalue=2, $weights=0.7_0.15_0.15, $a=1, $ctlg=1e5, $F=nrr, $ttl=1000, $D=fix0.1, $xi=1, $R=lru, $csize=1e3"
attr net three_caches_scenario_3_links
attr network networks.${net=three_caches_scenario_3_links}_network
attr priceratiovalue 2
attr processid 10298
attr rep 3
attr repetition 0
attr replication #0
attr resultdir results
attr runnumber 1381
attr seedset 3
attr ttl 1000
attr weights 0.7_0.15_0.15
attr xi 1

scalar . 	a 	1
scalar . 	csize 	1e3
scalar . 	ctlg 	1e5
scalar . 	priceratiovalue 	2
scalar . 	rep 	3
scalar . 	ttl 	1000
scalar . 	xi 	1
scalar three_caches_scenario_3_links_network.content_distribution 	repo-0 	4
scalar three_caches_scenario_3_links_network.content_distribution 	repo-1 	5
scalar three_caches_scenario_3_links_network.content_distribution 	repo-2 	6
scalar three_caches_scenario_3_links_network.content_distribution 	client-0 	0
scalar three_caches_scenario_3_links_network.content_distribution 	repo-0_card 	69828
scalar three_caches_scenario_3_links_network.content_distribution 	repo-1_card 	15121
scalar three_caches_scenario_3_links_network.content_distribution 	repo-2_card 	15051
scalar three_caches_scenario_3_links_network.statistics 	p_hit 	0.2508578915055
scalar three_caches_scenario_3_links_network.statistics 	interests 	52121.142857143
scalar three_caches_scenario_3_links_network.statistics 	data 	26453.714285714
scalar three_caches_scenario_3_links_network.statistics 	hdistance 	1.1427100494234
scalar three_caches_scenario_3_links_network.statistics 	avg_time 	0
scalar three_caches_scenario_3_links_network.statistics 	downloads 	179672
scalar three_caches_scenario_3_links_network.statistics 	total_cost 	29904
scalar three_caches_scenario_3_links_network.statistics 	total_replicas 	100000
scalar three_caches_scenario_3_links_network.statistics 	interests_sent 	179672
scalar three_caches_scenario_3_links_network.node[0].core_layer 	interests[0] 	179672
scalar three_caches_scenario_3_links_network.node[0].core_layer 	data[0] 	97029
scalar three_caches_scenario_3_links_network.node[0].core_layer 	repo_int[0] 	88147
scalar three_caches_scenario_3_links_network.node[0].content_store 	p_hit[0] 	0.45996593793134
scalar three_caches_scenario_3_links_network.node[0].content_store 	hits[0] 	82643
scalar three_caches_scenario_3_links_network.node[0].content_store 	misses[0] 	97029
scalar three_caches_scenario_3_links_network.node[0].content_store 	decision_yes[0] 	9599
scalar three_caches_scenario_3_links_network.node[0].content_store 	decision_no[0] 	87430
scalar three_caches_scenario_3_links_network.node[1].core_layer 	interests[1] 	68010
scalar three_caches_scenario_3_links_network.node[1].core_layer 	data[1] 	68010
scalar three_caches_scenario_3_links_network.node[1].content_store 	p_hit[1] 	0
scalar three_caches_scenario_3_links_network.node[1].content_store 	hits[1] 	0
scalar three_caches_scenario_3_links_network.node[1].content_store 	misses[1] 	68010
scalar three_caches_scenario_3_links_network.node[1].content_store 	decision_yes[1] 	0
scalar three_caches_scenario_3_links_network.node[1].content_store 	decision_no[1] 	68010
scalar three_caches_scenario_3_links_network.node[2].core_layer 	interests[2] 	15014
scalar three_caches_scenario_3_links_network.node[2].core_layer 	data[2] 	10370
scalar three_caches_scenario_3_links_network.node[2].content_store 	p_hit[2] 	0.30931130944452
scalar three_caches_scenario_3_links_network.node[2].content_store 	hits[2] 	4644
scalar three_caches_scenario_3_links_network.node[2].content_store 	misses[2] 	10370
scalar three_caches_scenario_3_links_network.node[2].content_store 	decision_yes[2] 	1089
scalar three_caches_scenario_3_links_network.node[2].content_store 	decision_no[2] 	9281
scalar three_caches_scenario_3_links_network.node[3].core_layer 	interests[3] 	14005
scalar three_caches_scenario_3_links_network.node[3].core_layer 	data[3] 	9767
scalar three_caches_scenario_3_links_network.node[3].content_store 	p_hit[3] 	0.30260621206712
scalar three_caches_scenario_3_links_network.node[3].content_store 	hits[3] 	4238
scalar three_caches_scenario_3_links_network.node[3].content_store 	misses[3] 	9767
scalar three_caches_scenario_3_links_network.node[3].content_store 	decision_yes[3] 	958
scalar three_caches_scenario_3_links_network.node[3].content_store 	decision_no[3] 	8809
scalar three_caches_scenario_3_links_network.node[4].core_layer 	interests[4] 	68010
scalar three_caches_scenario_3_links_network.node[4].core_layer 	repo_load[4] 	68010
scalar three_caches_scenario_3_links_network.node[4].core_layer 	data[4] 	0
scalar three_caches_scenario_3_links_network.node[4].content_store 	p_hit[4] 	0
scalar three_caches_scenario_3_links_network.node[4].content_store 	hits[4] 	0
scalar three_caches_scenario_3_links_network.node[4].content_store 	misses[4] 	68010
scalar three_caches_scenario_3_links_network.node[4].content_store 	decision_yes[4] 	0
scalar three_caches_scenario_3_links_network.node[4].content_store 	decision_no[4] 	68010
scalar three_caches_scenario_3_links_network.node[5].core_layer 	interests[5] 	10370
scalar three_caches_scenario_3_links_network.node[5].core_layer 	repo_load[5] 	10370
scalar three_caches_scenario_3_links_network.node[5].core_layer 	data[5] 	0
scalar three_caches_scenario_3_links_network.node[5].content_store 	p_hit[5] 	0
scalar three_caches_scenario_3_links_network.node[5].content_store 	hits[5] 	0
scalar three_caches_scenario_3_links_network.node[5].content_store 	misses[5] 	10370
scalar three_caches_scenario_3_links_network.node[5].content_store 	decision_yes[5] 	0
scalar three_caches_scenario_3_links_network.node[5].content_store 	decision_no[5] 	10370
scalar three_caches_scenario_3_links_network.node[6].core_layer 	interests[6] 	9767
scalar three_caches_scenario_3_links_network.node[6].core_layer 	repo_load[6] 	9767
scalar three_caches_scenario_3_links_network.node[6].core_layer 	data[6] 	0
scalar three_caches_scenario_3_links_network.node[6].content_store 	p_hit[6] 	0
scalar three_caches_scenario_3_links_network.node[6].content_store 	hits[6] 	0
scalar three_caches_scenario_3_links_network.node[6].content_store 	misses[6] 	9767
scalar three_caches_scenario_3_links_network.node[6].content_store 	decision_yes[6] 	0
scalar three_caches_scenario_3_links_network.node[6].content_store 	decision_no[6] 	9767
scalar three_caches_scenario_3_links_network.client[0] 	hdistance[0] 	1.1427100494234
scalar three_caches_scenario_3_links_network.client[0] 	downloads[0] 	179672
scalar three_caches_scenario_3_links_network.client[0] 	avg_time[0] 	0
scalar three_caches_scenario_3_links_network.client[0] 	interests_sent[0] 	179672
