version 2
run General-0-20140512-15:21:23-4505
attr D never
attr F spr
attr R lru
attr a 0
attr configname General
attr csize 1e3
attr ctlg 1e5
attr datetime 20140512-15:21:23
attr experiment General
attr inifile omnetpp.ini
attr iterationvars "$net=abilene_cost, $rep=1, $priceratiovalue=1, $weights=0.333_0.333_0.334, $a=0, $ctlg=1e5, $F=spr, $ttl=1000, $D=never, $xi=1, $R=lru, $csize=1e3"
attr iterationvars2 "$net=abilene_cost, $rep=1, $priceratiovalue=1, $weights=0.333_0.333_0.334, $a=0, $ctlg=1e5, $F=spr, $ttl=1000, $D=never, $xi=1, $R=lru, $csize=1e3, $repetition=0"
attr measurement "$net=abilene_cost, $rep=1, $priceratiovalue=1, $weights=0.333_0.333_0.334, $a=0, $ctlg=1e5, $F=spr, $ttl=1000, $D=never, $xi=1, $R=lru, $csize=1e3"
attr net abilene_cost
attr network networks.${net=abilene_cost}_network
attr priceratiovalue 1
attr processid 4505
attr rep 1
attr repetition 0
attr replication #0
attr resultdir results
attr runnumber 0
attr seedset 1
attr ttl 1000
attr weights 0.333_0.333_0.334
attr xi 1

scalar . 	a 	0
scalar . 	csize 	1e3
scalar . 	ctlg 	1e5
scalar . 	priceratiovalue 	1
scalar . 	rep 	1
scalar . 	ttl 	1000
scalar . 	xi 	1
scalar abilene_cost_network.content_distribution 	repo-0 	11
scalar abilene_cost_network.content_distribution 	repo-1 	12
scalar abilene_cost_network.content_distribution 	repo-2 	13
scalar abilene_cost_network.content_distribution 	client-0 	3
scalar abilene_cost_network.content_distribution 	client-1 	7
scalar abilene_cost_network.content_distribution 	client-2 	10
scalar abilene_cost_network.content_distribution 	repo-0_card 	33396
scalar abilene_cost_network.content_distribution 	repo-1_card 	33039
scalar abilene_cost_network.content_distribution 	repo-2_card 	33565
scalar abilene_cost_network.statistics 	p_hit 	0.00069085916289241
scalar abilene_cost_network.statistics 	interests 	57485.357142857
scalar abilene_cost_network.statistics 	data 	44851.285714286
scalar abilene_cost_network.statistics 	hdistance 	4.5467399503934
scalar abilene_cost_network.statistics 	avg_time 	0
scalar abilene_cost_network.statistics 	downloads 	176874
scalar abilene_cost_network.statistics 	total_cost 	117428
scalar abilene_cost_network.statistics 	total_replicas 	100000
scalar abilene_cost_network.statistics 	interests_sent 	176875
scalar abilene_cost_network.node[0].core_layer 	interests[0] 	58999
scalar abilene_cost_network.node[0].core_layer 	data[0] 	58914
scalar abilene_cost_network.node[0].core_layer 	repo_int[0] 	176318
scalar abilene_cost_network.node[0].content_store 	p_hit[0] 	0.0014407023847862
scalar abilene_cost_network.node[0].content_store 	hits[0] 	85
scalar abilene_cost_network.node[0].content_store 	misses[0] 	58914
scalar abilene_cost_network.node[0].content_store 	decision_yes[0] 	58914
scalar abilene_cost_network.node[0].content_store 	decision_no[0] 	0
scalar abilene_cost_network.node[0].content_store 	decision_ratio[0] 	1
scalar abilene_cost_network.node[1].core_layer 	interests[1] 	39148
scalar abilene_cost_network.node[1].core_layer 	data[1] 	39133
scalar abilene_cost_network.node[1].content_store 	p_hit[1] 	0.00038316133646674
scalar abilene_cost_network.node[1].content_store 	hits[1] 	15
scalar abilene_cost_network.node[1].content_store 	misses[1] 	39133
scalar abilene_cost_network.node[1].content_store 	decision_yes[1] 	39133
scalar abilene_cost_network.node[1].content_store 	decision_no[1] 	0
scalar abilene_cost_network.node[1].content_store 	decision_ratio[1] 	1
scalar abilene_cost_network.node[2].core_layer 	interests[2] 	39149
scalar abilene_cost_network.node[2].core_layer 	data[2] 	39133
scalar abilene_cost_network.node[2].content_store 	p_hit[2] 	0.00040869498582339
scalar abilene_cost_network.node[2].content_store 	hits[2] 	16
scalar abilene_cost_network.node[2].content_store 	misses[2] 	39133
scalar abilene_cost_network.node[2].content_store 	decision_yes[2] 	39133
scalar abilene_cost_network.node[2].content_store 	decision_no[2] 	0
scalar abilene_cost_network.node[2].content_store 	decision_ratio[2] 	1
scalar abilene_cost_network.node[3].core_layer 	interests[3] 	78594
scalar abilene_cost_network.node[3].core_layer 	data[3] 	78537
scalar abilene_cost_network.node[3].content_store 	p_hit[3] 	0.0007125225844212
scalar abilene_cost_network.node[3].content_store 	hits[3] 	56
scalar abilene_cost_network.node[3].content_store 	misses[3] 	78538
scalar abilene_cost_network.node[3].content_store 	decision_yes[3] 	78537
scalar abilene_cost_network.node[3].content_store 	decision_no[3] 	0
scalar abilene_cost_network.node[3].content_store 	decision_ratio[3] 	1
scalar abilene_cost_network.node[4].core_layer 	interests[4] 	38665
scalar abilene_cost_network.node[4].core_layer 	data[4] 	38618
scalar abilene_cost_network.node[4].content_store 	p_hit[4] 	0.0012155696366223
scalar abilene_cost_network.node[4].content_store 	hits[4] 	47
scalar abilene_cost_network.node[4].content_store 	misses[4] 	38618
scalar abilene_cost_network.node[4].content_store 	decision_yes[4] 	38618
scalar abilene_cost_network.node[4].content_store 	decision_no[4] 	0
scalar abilene_cost_network.node[4].content_store 	decision_ratio[4] 	1
scalar abilene_cost_network.node[5].core_layer 	interests[5] 	57992
scalar abilene_cost_network.node[5].core_layer 	data[5] 	57929
scalar abilene_cost_network.node[5].content_store 	p_hit[5] 	0.0010863567388605
scalar abilene_cost_network.node[5].content_store 	hits[5] 	63
scalar abilene_cost_network.node[5].content_store 	misses[5] 	57929
scalar abilene_cost_network.node[5].content_store 	decision_yes[5] 	57929
scalar abilene_cost_network.node[5].content_store 	decision_no[5] 	0
scalar abilene_cost_network.node[5].content_store 	decision_ratio[5] 	1
scalar abilene_cost_network.node[6].core_layer 	interests[6] 	19410
scalar abilene_cost_network.node[6].core_layer 	data[6] 	19374
scalar abilene_cost_network.node[6].content_store 	p_hit[6] 	0.001854714064915
scalar abilene_cost_network.node[6].content_store 	hits[6] 	36
scalar abilene_cost_network.node[6].content_store 	misses[6] 	19374
scalar abilene_cost_network.node[6].content_store 	decision_yes[6] 	19374
scalar abilene_cost_network.node[6].content_store 	decision_no[6] 	0
scalar abilene_cost_network.node[6].content_store 	decision_ratio[6] 	1
scalar abilene_cost_network.node[7].core_layer 	interests[7] 	79095
scalar abilene_cost_network.node[7].core_layer 	data[7] 	79012
scalar abilene_cost_network.node[7].content_store 	p_hit[7] 	0.0010367279853341
scalar abilene_cost_network.node[7].content_store 	hits[7] 	82
scalar abilene_cost_network.node[7].content_store 	misses[7] 	79013
scalar abilene_cost_network.node[7].content_store 	decision_yes[7] 	79012
scalar abilene_cost_network.node[7].content_store 	decision_no[7] 	0
scalar abilene_cost_network.node[7].content_store 	decision_ratio[7] 	1
scalar abilene_cost_network.node[8].core_layer 	interests[8] 	59603
scalar abilene_cost_network.node[8].core_layer 	data[8] 	59584
scalar abilene_cost_network.node[8].content_store 	p_hit[8] 	0.00030199822156603
scalar abilene_cost_network.node[8].content_store 	hits[8] 	18
scalar abilene_cost_network.node[8].content_store 	misses[8] 	59585
scalar abilene_cost_network.node[8].content_store 	decision_yes[8] 	59584
scalar abilene_cost_network.node[8].content_store 	decision_no[8] 	0
scalar abilene_cost_network.node[8].content_store 	decision_ratio[8] 	1
scalar abilene_cost_network.node[9].core_layer 	interests[9] 	79245
scalar abilene_cost_network.node[9].core_layer 	data[9] 	79196
scalar abilene_cost_network.node[9].content_store 	p_hit[9] 	0.00061833554167455
scalar abilene_cost_network.node[9].content_store 	hits[9] 	49
scalar abilene_cost_network.node[9].content_store 	misses[9] 	79196
scalar abilene_cost_network.node[9].content_store 	decision_yes[9] 	79196
scalar abilene_cost_network.node[9].content_store 	decision_no[9] 	0
scalar abilene_cost_network.node[9].content_store 	decision_ratio[9] 	1
scalar abilene_cost_network.node[10].core_layer 	interests[10] 	78553
scalar abilene_cost_network.node[10].core_layer 	data[10] 	78488
scalar abilene_cost_network.node[10].content_store 	p_hit[10] 	0.00082746680585083
scalar abilene_cost_network.node[10].content_store 	hits[10] 	65
scalar abilene_cost_network.node[10].content_store 	misses[10] 	78488
scalar abilene_cost_network.node[10].content_store 	decision_yes[10] 	78488
scalar abilene_cost_network.node[10].content_store 	decision_no[10] 	0
scalar abilene_cost_network.node[10].content_store 	decision_ratio[10] 	1
scalar abilene_cost_network.node[11].core_layer 	interests[11] 	58914
scalar abilene_cost_network.node[11].core_layer 	repo_load[11] 	58914
scalar abilene_cost_network.node[11].core_layer 	data[11] 	0
scalar abilene_cost_network.node[11].content_store 	p_hit[11] 	0
scalar abilene_cost_network.node[11].content_store 	hits[11] 	0
scalar abilene_cost_network.node[11].content_store 	misses[11] 	58914
scalar abilene_cost_network.node[11].content_store 	decision_yes[11] 	58914
scalar abilene_cost_network.node[11].content_store 	decision_no[11] 	0
scalar abilene_cost_network.node[11].content_store 	decision_ratio[11] 	1
scalar abilene_cost_network.node[12].core_layer 	interests[12] 	57929
scalar abilene_cost_network.node[12].core_layer 	repo_load[12] 	57929
scalar abilene_cost_network.node[12].core_layer 	data[12] 	0
scalar abilene_cost_network.node[12].content_store 	p_hit[12] 	0
scalar abilene_cost_network.node[12].content_store 	hits[12] 	0
scalar abilene_cost_network.node[12].content_store 	misses[12] 	57929
scalar abilene_cost_network.node[12].content_store 	decision_yes[12] 	57929
scalar abilene_cost_network.node[12].content_store 	decision_no[12] 	0
scalar abilene_cost_network.node[12].content_store 	decision_ratio[12] 	1
scalar abilene_cost_network.node[13].core_layer 	interests[13] 	59499
scalar abilene_cost_network.node[13].core_layer 	repo_load[13] 	59475
scalar abilene_cost_network.node[13].core_layer 	data[13] 	0
scalar abilene_cost_network.node[13].content_store 	p_hit[13] 	0.00040336812383401
scalar abilene_cost_network.node[13].content_store 	hits[13] 	24
scalar abilene_cost_network.node[13].content_store 	misses[13] 	59475
scalar abilene_cost_network.node[13].content_store 	decision_yes[13] 	59475
scalar abilene_cost_network.node[13].content_store 	decision_no[13] 	0
scalar abilene_cost_network.node[13].content_store 	decision_ratio[13] 	1
scalar abilene_cost_network.client[3] 	hdistance[3] 	4.6648680649527
scalar abilene_cost_network.client[3] 	downloads[3] 	59120
scalar abilene_cost_network.client[3] 	avg_time[3] 	0
scalar abilene_cost_network.client[3] 	interests_sent[3] 	59121
scalar abilene_cost_network.client[7] 	hdistance[7] 	4.6594111854392
scalar abilene_cost_network.client[7] 	downloads[7] 	58898
scalar abilene_cost_network.client[7] 	avg_time[7] 	0
scalar abilene_cost_network.client[7] 	interests_sent[7] 	58898
scalar abilene_cost_network.client[10] 	hdistance[10] 	4.3159406007884
scalar abilene_cost_network.client[10] 	downloads[10] 	58856
scalar abilene_cost_network.client[10] 	avg_time[10] 	0
scalar abilene_cost_network.client[10] 	interests_sent[10] 	58856
