version 2
run General-22-20140708-17:24:05-17228
attr D costprobtailcons
attr F nrr
attr R lru
attr a 1
attr configname General
attr csize 1e3
attr ctlg 1e5
attr datetime 20140708-17:24:05
attr experiment General
attr inifile omnetpp.ini
attr iterationvars "$net=abilene_cost, $rep=12, $priceratiovalue=10, $weights=0.333_0.333_0.334, $lambda=100, $a=1, $ctlg=1e5, $F=nrr, $ttl=1000, $D=costprobtailcons, $xi=1, $R=lru, $csize=1e3, $pricebits=0, $window=60, $variance=0.05, $mytime=1800"
attr iterationvars2 "$net=abilene_cost, $rep=12, $priceratiovalue=10, $weights=0.333_0.333_0.334, $lambda=100, $a=1, $ctlg=1e5, $F=nrr, $ttl=1000, $D=costprobtailcons, $xi=1, $R=lru, $csize=1e3, $pricebits=0, $window=60, $variance=0.05, $mytime=1800, $repetition=0"
attr lambda 100
attr measurement "$net=abilene_cost, $rep=12, $priceratiovalue=10, $weights=0.333_0.333_0.334, $lambda=100, $a=1, $ctlg=1e5, $F=nrr, $ttl=1000, $D=costprobtailcons, $xi=1, $R=lru, $csize=1e3, $pricebits=0, $window=60, $variance=0.05, $mytime=1800"
attr mytime 1800
attr net abilene_cost
attr network "networks.${net=abilene_cost, geant_cost}_network"
attr pricebits 0
attr priceratiovalue 10
attr processid 17228
attr rep 12
attr repetition 0
attr replication #0
attr resultdir results
attr runnumber 22
attr seedset 12
attr ttl 1000
attr variance 0.05
attr weights 0.333_0.333_0.334
attr window 60
attr xi 1

scalar . 	a 	1
scalar . 	csize 	1e3
scalar . 	ctlg 	1e5
scalar . 	lambda 	100
scalar . 	mytime 	1800
scalar . 	pricebits 	0
scalar . 	priceratiovalue 	10
scalar . 	rep 	12
scalar . 	ttl 	1000
scalar . 	variance 	0.05
scalar . 	window 	60
scalar . 	xi 	1
scalar abilene_cost_network.content_distribution 	repo-0 	11
scalar abilene_cost_network.content_distribution 	repo-1 	12
scalar abilene_cost_network.content_distribution 	repo-2 	13
scalar abilene_cost_network.content_distribution 	client-0 	5
scalar abilene_cost_network.content_distribution 	client-1 	0
scalar abilene_cost_network.content_distribution 	client-2 	9
scalar abilene_cost_network.content_distribution 	repo-0_card 	33376
scalar abilene_cost_network.content_distribution 	repo-1_card 	33439
scalar abilene_cost_network.content_distribution 	repo-2_card 	33185
scalar abilene_cost_network.statistics 	repo_popularity[0] 	0.3146103286495
scalar abilene_cost_network.statistics 	repo_popularity[1] 	0.33182472258399
scalar abilene_cost_network.statistics 	repo_popularity[2] 	0.35356494876651
scalar abilene_cost_network.statistics 	stabilization_time 	65.4
scalar abilene_cost_network.node[1].face$o[4].channel 	price[1] 	0
scalar abilene_cost_network.node[1].face$o[4].channel 	represented_price[1] 	0
scalar abilene_cost_network.node[7].face$o[4].channel 	price[7] 	0
scalar abilene_cost_network.node[7].face$o[4].channel 	represented_price[7] 	0
scalar abilene_cost_network.node[10].face$o[4].channel 	price[10] 	0
scalar abilene_cost_network.node[10].face$o[4].channel 	represented_price[10] 	0
scalar abilene_cost_network.node[11].face$o[1].channel 	price[11] 	0
scalar abilene_cost_network.node[11].face$o[1].channel 	represented_price[11] 	0
scalar abilene_cost_network.node[12].face$o[1].channel 	price[12] 	1
scalar abilene_cost_network.node[12].face$o[1].channel 	represented_price[12] 	1
scalar abilene_cost_network.node[13].face$o[1].channel 	price[13] 	10
scalar abilene_cost_network.node[13].face$o[1].channel 	represented_price[13] 	10
scalar abilene_cost_network.statistics 	p_hit 	0.10946666029463
scalar abilene_cost_network.statistics 	interests 	143484
scalar abilene_cost_network.statistics 	data 	104928.92857143
scalar abilene_cost_network.statistics 	hdistance 	3.3464559166258
scalar abilene_cost_network.statistics 	avg_time 	0.013928214159
scalar abilene_cost_network.statistics 	downloads 	533536
scalar abilene_cost_network.statistics 	total_cost 	750048
scalar abilene_cost_network.statistics 	total_replicas 	100000
scalar abilene_cost_network.statistics 	inner_hit 	0.41214838361423
scalar abilene_cost_network.statistics 	interests_sent 	539766
scalar abilene_cost_network.node[0].core_layer 	interests[0] 	196353
scalar abilene_cost_network.node[0].core_layer 	data[0] 	147917
scalar abilene_cost_network.node[0].core_layer 	repo_int[0] 	313640
scalar abilene_cost_network.node[0].content_store 	p_hit[0] 	0.24346457655345
scalar abilene_cost_network.node[0].content_store 	hits[0] 	47805
scalar abilene_cost_network.node[0].content_store 	misses[0] 	148548
scalar abilene_cost_network.node[0].content_store 	decision_yes[0] 	80
scalar abilene_cost_network.node[0].content_store 	decision_no[0] 	147837
scalar abilene_cost_network.node[0].content_store 	decision_ratio[0] 	0.00054084385161949
scalar abilene_cost_network.node[0].content_store 	correction_factor[0] 	1.7575330026583e-316
scalar abilene_cost_network.node[0].content_store 	xi[0] 	1
scalar abilene_cost_network.node[1].core_layer 	interests[1] 	219466
scalar abilene_cost_network.node[1].core_layer 	data[1] 	172861
scalar abilene_cost_network.node[1].content_store 	p_hit[1] 	0.212356355882
scalar abilene_cost_network.node[1].content_store 	hits[1] 	46605
scalar abilene_cost_network.node[1].content_store 	misses[1] 	172861
scalar abilene_cost_network.node[1].content_store 	decision_yes[1] 	107
scalar abilene_cost_network.node[1].content_store 	decision_no[1] 	172754
scalar abilene_cost_network.node[1].content_store 	decision_ratio[1] 	0.00061899445218991
scalar abilene_cost_network.node[1].content_store 	correction_factor[1] 	1.7575250976079e-316
scalar abilene_cost_network.node[1].content_store 	xi[1] 	1
scalar abilene_cost_network.node[2].core_layer 	interests[2] 	159353
scalar abilene_cost_network.node[2].core_layer 	data[2] 	144233
scalar abilene_cost_network.node[2].content_store 	p_hit[2] 	0.094877410528826
scalar abilene_cost_network.node[2].content_store 	hits[2] 	15119
scalar abilene_cost_network.node[2].content_store 	misses[2] 	144234
scalar abilene_cost_network.node[2].content_store 	decision_yes[2] 	129
scalar abilene_cost_network.node[2].content_store 	decision_no[2] 	144104
scalar abilene_cost_network.node[2].content_store 	decision_ratio[2] 	0.00089438616682729
scalar abilene_cost_network.node[2].content_store 	correction_factor[2] 	1.7574903153865e-316
scalar abilene_cost_network.node[2].content_store 	xi[2] 	1
scalar abilene_cost_network.node[3].core_layer 	interests[3] 	150285
scalar abilene_cost_network.node[3].core_layer 	data[3] 	141803
scalar abilene_cost_network.node[3].content_store 	p_hit[3] 	0.056426123698307
scalar abilene_cost_network.node[3].content_store 	hits[3] 	8480
scalar abilene_cost_network.node[3].content_store 	misses[3] 	141805
scalar abilene_cost_network.node[3].content_store 	decision_yes[3] 	0
scalar abilene_cost_network.node[3].content_store 	decision_no[3] 	141803
scalar abilene_cost_network.node[3].content_store 	decision_ratio[3] 	0
scalar abilene_cost_network.node[3].content_store 	correction_factor[3] 	1.7573986168026e-316
scalar abilene_cost_network.node[3].content_store 	xi[3] 	1
scalar abilene_cost_network.node[4].core_layer 	interests[4] 	111487
scalar abilene_cost_network.node[4].core_layer 	data[4] 	110292
scalar abilene_cost_network.node[4].content_store 	p_hit[4] 	0.010700799196319
scalar abilene_cost_network.node[4].content_store 	hits[4] 	1193
scalar abilene_cost_network.node[4].content_store 	misses[4] 	110294
scalar abilene_cost_network.node[4].content_store 	decision_yes[4] 	0
scalar abilene_cost_network.node[4].content_store 	decision_no[4] 	110292
scalar abilene_cost_network.node[4].content_store 	decision_ratio[4] 	0
scalar abilene_cost_network.node[4].content_store 	correction_factor[4] 	1.7581733117353e-316
scalar abilene_cost_network.node[4].content_store 	xi[4] 	1
scalar abilene_cost_network.node[5].core_layer 	interests[5] 	182074
scalar abilene_cost_network.node[5].core_layer 	data[5] 	160090
scalar abilene_cost_network.node[5].content_store 	p_hit[5] 	0.10114568801696
scalar abilene_cost_network.node[5].content_store 	hits[5] 	18416
scalar abilene_cost_network.node[5].content_store 	misses[5] 	163658
scalar abilene_cost_network.node[5].content_store 	decision_yes[5] 	90
scalar abilene_cost_network.node[5].content_store 	decision_no[5] 	160000
scalar abilene_cost_network.node[5].content_store 	decision_ratio[5] 	0.00056218377162846
scalar abilene_cost_network.node[5].content_store 	correction_factor[5] 	1.7585638212218e-316
scalar abilene_cost_network.node[5].content_store 	xi[5] 	1
scalar abilene_cost_network.node[6].core_layer 	interests[6] 	54785
scalar abilene_cost_network.node[6].core_layer 	data[6] 	49088
scalar abilene_cost_network.node[6].content_store 	p_hit[6] 	0.10398831797025
scalar abilene_cost_network.node[6].content_store 	hits[6] 	5697
scalar abilene_cost_network.node[6].content_store 	misses[6] 	49088
scalar abilene_cost_network.node[6].content_store 	decision_yes[6] 	0
scalar abilene_cost_network.node[6].content_store 	decision_no[6] 	49088
scalar abilene_cost_network.node[6].content_store 	decision_ratio[6] 	0
scalar abilene_cost_network.node[6].content_store 	correction_factor[6] 	1.7585559161714e-316
scalar abilene_cost_network.node[6].content_store 	xi[6] 	1
scalar abilene_cost_network.node[7].core_layer 	interests[7] 	129000
scalar abilene_cost_network.node[7].core_layer 	data[7] 	89660
scalar abilene_cost_network.node[7].content_store 	p_hit[7] 	0.30495348837209
scalar abilene_cost_network.node[7].content_store 	hits[7] 	39339
scalar abilene_cost_network.node[7].content_store 	misses[7] 	89661
scalar abilene_cost_network.node[7].content_store 	decision_yes[7] 	98
scalar abilene_cost_network.node[7].content_store 	decision_no[7] 	89562
scalar abilene_cost_network.node[7].content_store 	decision_ratio[7] 	0.0010930180682579
scalar abilene_cost_network.node[7].content_store 	correction_factor[7] 	1.7587567044499e-316
scalar abilene_cost_network.node[7].content_store 	xi[7] 	1
scalar abilene_cost_network.node[8].core_layer 	interests[8] 	64429
scalar abilene_cost_network.node[8].core_layer 	data[8] 	58678
scalar abilene_cost_network.node[8].content_store 	p_hit[8] 	0.089261047044033
scalar abilene_cost_network.node[8].content_store 	hits[8] 	5751
scalar abilene_cost_network.node[8].content_store 	misses[8] 	58678
scalar abilene_cost_network.node[8].content_store 	decision_yes[8] 	0
scalar abilene_cost_network.node[8].content_store 	decision_no[8] 	58678
scalar abilene_cost_network.node[8].content_store 	decision_ratio[8] 	0
scalar abilene_cost_network.node[8].content_store 	correction_factor[8] 	1.7589559117183e-316
scalar abilene_cost_network.node[8].content_store 	xi[8] 	1
scalar abilene_cost_network.node[9].core_layer 	interests[9] 	192281
scalar abilene_cost_network.node[9].core_layer 	data[9] 	166653
scalar abilene_cost_network.node[9].content_store 	p_hit[9] 	0.122721433735
scalar abilene_cost_network.node[9].content_store 	hits[9] 	23597
scalar abilene_cost_network.node[9].content_store 	misses[9] 	168684
scalar abilene_cost_network.node[9].content_store 	decision_yes[9] 	89
scalar abilene_cost_network.node[9].content_store 	decision_no[9] 	166564
scalar abilene_cost_network.node[9].content_store 	decision_ratio[9] 	0.00053404379159091
scalar abilene_cost_network.node[9].content_store 	correction_factor[9] 	1.7591582810068e-316
scalar abilene_cost_network.node[9].content_store 	xi[9] 	1
scalar abilene_cost_network.node[10].core_layer 	interests[10] 	235623
scalar abilene_cost_network.node[10].core_layer 	data[10] 	227730
scalar abilene_cost_network.node[10].content_store 	p_hit[10] 	0.033494183505006
scalar abilene_cost_network.node[10].content_store 	hits[10] 	7892
scalar abilene_cost_network.node[10].content_store 	misses[10] 	227731
scalar abilene_cost_network.node[10].content_store 	decision_yes[10] 	165
scalar abilene_cost_network.node[10].content_store 	decision_no[10] 	227565
scalar abilene_cost_network.node[10].content_store 	decision_ratio[10] 	0.00072454222105124
scalar abilene_cost_network.node[10].content_store 	correction_factor[10] 	1.7600906816937e-316
scalar abilene_cost_network.node[10].content_store 	xi[10] 	1
scalar abilene_cost_network.node[11].core_layer 	interests[11] 	168293
scalar abilene_cost_network.node[11].core_layer 	repo_load[11] 	168293
scalar abilene_cost_network.node[11].core_layer 	data[11] 	0
scalar abilene_cost_network.node[11].content_store 	p_hit[11] 	0
scalar abilene_cost_network.node[11].content_store 	hits[11] 	0
scalar abilene_cost_network.node[11].content_store 	misses[11] 	168293
scalar abilene_cost_network.node[11].content_store 	decision_yes[11] 	0
scalar abilene_cost_network.node[11].content_store 	decision_no[11] 	168293
scalar abilene_cost_network.node[11].content_store 	decision_ratio[11] 	0
scalar abilene_cost_network.node[12].core_layer 	interests[12] 	78158
scalar abilene_cost_network.node[12].core_layer 	repo_load[12] 	78158
scalar abilene_cost_network.node[12].core_layer 	data[12] 	0
scalar abilene_cost_network.node[12].content_store 	p_hit[12] 	0
scalar abilene_cost_network.node[12].content_store 	hits[12] 	0
scalar abilene_cost_network.node[12].content_store 	misses[12] 	78158
scalar abilene_cost_network.node[12].content_store 	decision_yes[12] 	0
scalar abilene_cost_network.node[12].content_store 	decision_no[12] 	78158
scalar abilene_cost_network.node[12].content_store 	decision_ratio[12] 	0
scalar abilene_cost_network.node[13].core_layer 	interests[13] 	67189
scalar abilene_cost_network.node[13].core_layer 	repo_load[13] 	67189
scalar abilene_cost_network.node[13].core_layer 	data[13] 	0
scalar abilene_cost_network.node[13].content_store 	p_hit[13] 	0
scalar abilene_cost_network.node[13].content_store 	hits[13] 	0
scalar abilene_cost_network.node[13].content_store 	misses[13] 	67189
scalar abilene_cost_network.node[13].content_store 	decision_yes[13] 	0
scalar abilene_cost_network.node[13].content_store 	decision_no[13] 	67189
scalar abilene_cost_network.node[13].content_store 	decision_ratio[13] 	0
scalar abilene_cost_network.client[0] 	hdistance[0] 	2.762075915351
scalar abilene_cost_network.client[0] 	downloads[0] 	178620
scalar abilene_cost_network.client[0] 	avg_time[0] 	0.011709935461
scalar abilene_cost_network.client[0] 	interests_sent[0] 	179251
scalar abilene_cost_network.client[5] 	hdistance[5] 	4.5400272294077
scalar abilene_cost_network.client[5] 	downloads[5] 	176280
scalar abilene_cost_network.client[5] 	avg_time[5] 	0.018298477519
scalar abilene_cost_network.client[5] 	interests_sent[5] 	179848
scalar abilene_cost_network.client[9] 	hdistance[9] 	2.7372646051188
scalar abilene_cost_network.client[9] 	downloads[9] 	178636
scalar abilene_cost_network.client[9] 	avg_time[9] 	0.011776229499
scalar abilene_cost_network.client[9] 	interests_sent[9] 	180667
