version 2
run General-20-20140708-17:23:36-17226
attr D costprobtailcons
attr F nrr
attr R lru
attr a 1
attr configname General
attr csize 1e3
attr ctlg 1e5
attr datetime 20140708-17:23:36
attr experiment General
attr inifile omnetpp.ini
attr iterationvars "$net=abilene_cost, $rep=11, $priceratiovalue=10, $weights=0.333_0.333_0.334, $lambda=100, $a=1, $ctlg=1e5, $F=nrr, $ttl=1000, $D=costprobtailcons, $xi=1, $R=lru, $csize=1e3, $pricebits=0, $window=60, $variance=0.05, $mytime=1800"
attr iterationvars2 "$net=abilene_cost, $rep=11, $priceratiovalue=10, $weights=0.333_0.333_0.334, $lambda=100, $a=1, $ctlg=1e5, $F=nrr, $ttl=1000, $D=costprobtailcons, $xi=1, $R=lru, $csize=1e3, $pricebits=0, $window=60, $variance=0.05, $mytime=1800, $repetition=0"
attr lambda 100
attr measurement "$net=abilene_cost, $rep=11, $priceratiovalue=10, $weights=0.333_0.333_0.334, $lambda=100, $a=1, $ctlg=1e5, $F=nrr, $ttl=1000, $D=costprobtailcons, $xi=1, $R=lru, $csize=1e3, $pricebits=0, $window=60, $variance=0.05, $mytime=1800"
attr mytime 1800
attr net abilene_cost
attr network "networks.${net=abilene_cost, geant_cost}_network"
attr pricebits 0
attr priceratiovalue 10
attr processid 17226
attr rep 11
attr repetition 0
attr replication #0
attr resultdir results
attr runnumber 20
attr seedset 11
attr ttl 1000
attr variance 0.05
attr weights 0.333_0.333_0.334
attr window 60
attr xi 1

scalar . 	a 	1
scalar . 	csize 	1e3
scalar . 	ctlg 	1e5
scalar . 	lambda 	100
scalar . 	mytime 	1800
scalar . 	pricebits 	0
scalar . 	priceratiovalue 	10
scalar . 	rep 	11
scalar . 	ttl 	1000
scalar . 	variance 	0.05
scalar . 	window 	60
scalar . 	xi 	1
scalar abilene_cost_network.content_distribution 	repo-0 	11
scalar abilene_cost_network.content_distribution 	repo-1 	12
scalar abilene_cost_network.content_distribution 	repo-2 	13
scalar abilene_cost_network.content_distribution 	client-0 	5
scalar abilene_cost_network.content_distribution 	client-1 	0
scalar abilene_cost_network.content_distribution 	client-2 	9
scalar abilene_cost_network.content_distribution 	repo-0_card 	33093
scalar abilene_cost_network.content_distribution 	repo-1_card 	33554
scalar abilene_cost_network.content_distribution 	repo-2_card 	33353
scalar abilene_cost_network.statistics 	repo_popularity[0] 	0.39172976570124
scalar abilene_cost_network.statistics 	repo_popularity[1] 	0.31007949205523
scalar abilene_cost_network.statistics 	repo_popularity[2] 	0.29819074224352
scalar abilene_cost_network.statistics 	stabilization_time 	64.8
scalar abilene_cost_network.node[1].face$o[4].channel 	price[1] 	0
scalar abilene_cost_network.node[1].face$o[4].channel 	represented_price[1] 	0
scalar abilene_cost_network.node[7].face$o[4].channel 	price[7] 	0
scalar abilene_cost_network.node[7].face$o[4].channel 	represented_price[7] 	0
scalar abilene_cost_network.node[10].face$o[4].channel 	price[10] 	0
scalar abilene_cost_network.node[10].face$o[4].channel 	represented_price[10] 	0
scalar abilene_cost_network.node[11].face$o[1].channel 	price[11] 	0
scalar abilene_cost_network.node[11].face$o[1].channel 	represented_price[11] 	0
scalar abilene_cost_network.node[12].face$o[1].channel 	price[12] 	1
scalar abilene_cost_network.node[12].face$o[1].channel 	represented_price[12] 	1
scalar abilene_cost_network.node[13].face$o[1].channel 	price[13] 	10
scalar abilene_cost_network.node[13].face$o[1].channel 	represented_price[13] 	10
scalar abilene_cost_network.statistics 	p_hit 	0.088353298477775
scalar abilene_cost_network.statistics 	interests 	146946.57142857
scalar abilene_cost_network.statistics 	data 	108325.85714286
scalar abilene_cost_network.statistics 	hdistance 	3.5073711562878
scalar abilene_cost_network.statistics 	avg_time 	0.014172856679
scalar abilene_cost_network.statistics 	downloads 	533577
scalar abilene_cost_network.statistics 	total_cost 	758141
scalar abilene_cost_network.statistics 	total_replicas 	100000
scalar abilene_cost_network.statistics 	inner_hit 	0.34066123539808
scalar abilene_cost_network.statistics 	interests_sent 	540693
scalar abilene_cost_network.node[0].core_layer 	interests[0] 	190849
scalar abilene_cost_network.node[0].core_layer 	data[0] 	165268
scalar abilene_cost_network.node[0].core_layer 	repo_int[0] 	351808
scalar abilene_cost_network.node[0].content_store 	p_hit[0] 	0.12491550911978
scalar abilene_cost_network.node[0].content_store 	hits[0] 	23840
scalar abilene_cost_network.node[0].content_store 	misses[0] 	167009
scalar abilene_cost_network.node[0].content_store 	decision_yes[0] 	117
scalar abilene_cost_network.node[0].content_store 	decision_no[0] 	165151
scalar abilene_cost_network.node[0].content_store 	decision_ratio[0] 	0.0007079410412179
scalar abilene_cost_network.node[0].content_store 	correction_factor[0] 	7.4771025286078e-317
scalar abilene_cost_network.node[0].content_store 	xi[0] 	1
scalar abilene_cost_network.node[1].core_layer 	interests[1] 	216190
scalar abilene_cost_network.node[1].core_layer 	data[1] 	186599
scalar abilene_cost_network.node[1].content_store 	p_hit[1] 	0.13687497109024
scalar abilene_cost_network.node[1].content_store 	hits[1] 	29591
scalar abilene_cost_network.node[1].content_store 	misses[1] 	186599
scalar abilene_cost_network.node[1].content_store 	decision_yes[1] 	90
scalar abilene_cost_network.node[1].content_store 	decision_no[1] 	186509
scalar abilene_cost_network.node[1].content_store 	decision_ratio[1] 	0.00048231769730813
scalar abilene_cost_network.node[1].content_store 	correction_factor[1] 	7.4770234781044e-317
scalar abilene_cost_network.node[1].content_store 	xi[1] 	1
scalar abilene_cost_network.node[2].core_layer 	interests[2] 	159850
scalar abilene_cost_network.node[2].core_layer 	data[2] 	145675
scalar abilene_cost_network.node[2].content_store 	p_hit[2] 	0.088676884579293
scalar abilene_cost_network.node[2].content_store 	hits[2] 	14175
scalar abilene_cost_network.node[2].content_store 	misses[2] 	145675
scalar abilene_cost_network.node[2].content_store 	decision_yes[2] 	99
scalar abilene_cost_network.node[2].content_store 	decision_no[2] 	145576
scalar abilene_cost_network.node[2].content_store 	decision_ratio[2] 	0.00067959498884503
scalar abilene_cost_network.node[2].content_store 	correction_factor[2] 	7.4766756558898e-317
scalar abilene_cost_network.node[2].content_store 	xi[2] 	1
scalar abilene_cost_network.node[3].core_layer 	interests[3] 	148850
scalar abilene_cost_network.node[3].core_layer 	data[3] 	144044
scalar abilene_cost_network.node[3].content_store 	p_hit[3] 	0.032287537789721
scalar abilene_cost_network.node[3].content_store 	hits[3] 	4806
scalar abilene_cost_network.node[3].content_store 	misses[3] 	144044
scalar abilene_cost_network.node[3].content_store 	decision_yes[3] 	0
scalar abilene_cost_network.node[3].content_store 	decision_no[3] 	144044
scalar abilene_cost_network.node[3].content_store 	decision_ratio[3] 	0
scalar abilene_cost_network.node[3].content_store 	correction_factor[3] 	7.4757586700511e-317
scalar abilene_cost_network.node[3].content_store 	xi[3] 	1
scalar abilene_cost_network.node[4].core_layer 	interests[4] 	108238
scalar abilene_cost_network.node[4].core_layer 	data[4] 	106477
scalar abilene_cost_network.node[4].content_store 	p_hit[4] 	0.016269701953103
scalar abilene_cost_network.node[4].content_store 	hits[4] 	1761
scalar abilene_cost_network.node[4].content_store 	misses[4] 	106477
scalar abilene_cost_network.node[4].content_store 	decision_yes[4] 	0
scalar abilene_cost_network.node[4].content_store 	decision_no[4] 	106477
scalar abilene_cost_network.node[4].content_store 	decision_ratio[4] 	0
scalar abilene_cost_network.node[4].content_store 	correction_factor[4] 	7.4835056193779e-317
scalar abilene_cost_network.node[4].content_store 	xi[4] 	1
scalar abilene_cost_network.node[5].core_layer 	interests[5] 	181360
scalar abilene_cost_network.node[5].core_layer 	data[5] 	154832
scalar abilene_cost_network.node[5].content_store 	p_hit[5] 	0.12311424790472
scalar abilene_cost_network.node[5].content_store 	hits[5] 	22328
scalar abilene_cost_network.node[5].content_store 	misses[5] 	159032
scalar abilene_cost_network.node[5].content_store 	decision_yes[5] 	65
scalar abilene_cost_network.node[5].content_store 	decision_no[5] 	154767
scalar abilene_cost_network.node[5].content_store 	decision_ratio[5] 	0.0004198098584272
scalar abilene_cost_network.node[5].content_store 	correction_factor[5] 	7.4874107142426e-317
scalar abilene_cost_network.node[5].content_store 	xi[5] 	1
scalar abilene_cost_network.node[6].core_layer 	interests[6] 	50183
scalar abilene_cost_network.node[6].core_layer 	data[6] 	45704
scalar abilene_cost_network.node[6].content_store 	p_hit[6] 	0.089293186935815
scalar abilene_cost_network.node[6].content_store 	hits[6] 	4481
scalar abilene_cost_network.node[6].content_store 	misses[6] 	45702
scalar abilene_cost_network.node[6].content_store 	decision_yes[6] 	0
scalar abilene_cost_network.node[6].content_store 	decision_no[6] 	45704
scalar abilene_cost_network.node[6].content_store 	decision_ratio[6] 	0
scalar abilene_cost_network.node[6].content_store 	correction_factor[6] 	7.4873316637393e-317
scalar abilene_cost_network.node[6].content_store 	xi[6] 	1
scalar abilene_cost_network.node[7].core_layer 	interests[7] 	129935
scalar abilene_cost_network.node[7].core_layer 	data[7] 	89613
scalar abilene_cost_network.node[7].content_store 	p_hit[7] 	0.31030900065417
scalar abilene_cost_network.node[7].content_store 	hits[7] 	40320
scalar abilene_cost_network.node[7].content_store 	misses[7] 	89615
scalar abilene_cost_network.node[7].content_store 	decision_yes[7] 	81
scalar abilene_cost_network.node[7].content_store 	decision_no[7] 	89532
scalar abilene_cost_network.node[7].content_store 	decision_ratio[7] 	0.00090388671286532
scalar abilene_cost_network.node[7].content_store 	correction_factor[7] 	7.489339546524e-317
scalar abilene_cost_network.node[7].content_store 	xi[7] 	1
scalar abilene_cost_network.node[8].core_layer 	interests[8] 	65491
scalar abilene_cost_network.node[8].core_layer 	data[8] 	59506
scalar abilene_cost_network.node[8].content_store 	p_hit[8] 	0.091371333465667
scalar abilene_cost_network.node[8].content_store 	hits[8] 	5984
scalar abilene_cost_network.node[8].content_store 	misses[8] 	59507
scalar abilene_cost_network.node[8].content_store 	decision_yes[8] 	0
scalar abilene_cost_network.node[8].content_store 	decision_no[8] 	59506
scalar abilene_cost_network.node[8].content_store 	decision_ratio[8] 	0
scalar abilene_cost_network.node[8].content_store 	correction_factor[8] 	7.491331619208e-317
scalar abilene_cost_network.node[8].content_store 	xi[8] 	1
scalar abilene_cost_network.node[9].core_layer 	interests[9] 	193372
scalar abilene_cost_network.node[9].core_layer 	data[9] 	166595
scalar abilene_cost_network.node[9].content_store 	p_hit[9] 	0.13239765839935
scalar abilene_cost_network.node[9].content_store 	hits[9] 	25602
scalar abilene_cost_network.node[9].content_store 	misses[9] 	167770
scalar abilene_cost_network.node[9].content_store 	decision_yes[9] 	85
scalar abilene_cost_network.node[9].content_store 	decision_no[9] 	166510
scalar abilene_cost_network.node[9].content_store 	decision_ratio[9] 	0.00051021939433957
scalar abilene_cost_network.node[9].content_store 	correction_factor[9] 	7.4933553120934e-317
scalar abilene_cost_network.node[9].content_store 	xi[9] 	1
scalar abilene_cost_network.node[10].core_layer 	interests[10] 	261126
scalar abilene_cost_network.node[10].core_layer 	data[10] 	252249
scalar abilene_cost_network.node[10].content_store 	p_hit[10] 	0.033995082833575
scalar abilene_cost_network.node[10].content_store 	hits[10] 	8877
scalar abilene_cost_network.node[10].content_store 	misses[10] 	252249
scalar abilene_cost_network.node[10].content_store 	decision_yes[10] 	99
scalar abilene_cost_network.node[10].content_store 	decision_no[10] 	252150
scalar abilene_cost_network.node[10].content_store 	decision_ratio[10] 	0.00039246934576549
scalar abilene_cost_network.node[10].content_store 	correction_factor[10] 	7.5026793189617e-317
scalar abilene_cost_network.node[10].content_store 	xi[10] 	1
scalar abilene_cost_network.node[11].core_layer 	interests[11] 	205793
scalar abilene_cost_network.node[11].core_layer 	repo_load[11] 	205793
scalar abilene_cost_network.node[11].core_layer 	data[11] 	0
scalar abilene_cost_network.node[11].content_store 	p_hit[11] 	0
scalar abilene_cost_network.node[11].content_store 	hits[11] 	0
scalar abilene_cost_network.node[11].content_store 	misses[11] 	205793
scalar abilene_cost_network.node[11].content_store 	decision_yes[11] 	0
scalar abilene_cost_network.node[11].content_store 	decision_no[11] 	205793
scalar abilene_cost_network.node[11].content_store 	decision_ratio[11] 	0
scalar abilene_cost_network.node[12].core_layer 	interests[12] 	78001
scalar abilene_cost_network.node[12].core_layer 	repo_load[12] 	78001
scalar abilene_cost_network.node[12].core_layer 	data[12] 	0
scalar abilene_cost_network.node[12].content_store 	p_hit[12] 	0
scalar abilene_cost_network.node[12].content_store 	hits[12] 	0
scalar abilene_cost_network.node[12].content_store 	misses[12] 	78001
scalar abilene_cost_network.node[12].content_store 	decision_yes[12] 	0
scalar abilene_cost_network.node[12].content_store 	decision_no[12] 	78001
scalar abilene_cost_network.node[12].content_store 	decision_ratio[12] 	0
scalar abilene_cost_network.node[13].core_layer 	interests[13] 	68014
scalar abilene_cost_network.node[13].core_layer 	repo_load[13] 	68014
scalar abilene_cost_network.node[13].core_layer 	data[13] 	0
scalar abilene_cost_network.node[13].content_store 	p_hit[13] 	0
scalar abilene_cost_network.node[13].content_store 	hits[13] 	0
scalar abilene_cost_network.node[13].content_store 	misses[13] 	68014
scalar abilene_cost_network.node[13].content_store 	decision_yes[13] 	0
scalar abilene_cost_network.node[13].content_store 	decision_no[13] 	68014
scalar abilene_cost_network.node[13].content_store 	decision_ratio[13] 	0
scalar abilene_cost_network.client[0] 	hdistance[0] 	3.0456626883719
scalar abilene_cost_network.client[0] 	downloads[0] 	178636
scalar abilene_cost_network.client[0] 	avg_time[0] 	0.012600662718
scalar abilene_cost_network.client[0] 	interests_sent[0] 	180377
scalar abilene_cost_network.client[5] 	hdistance[5] 	4.6820321238169
scalar abilene_cost_network.client[5] 	downloads[5] 	176131
scalar abilene_cost_network.client[5] 	avg_time[5] 	0.018904576567
scalar abilene_cost_network.client[5] 	interests_sent[5] 	180331
scalar abilene_cost_network.client[9] 	hdistance[9] 	2.7944186566746
scalar abilene_cost_network.client[9] 	downloads[9] 	178810
scalar abilene_cost_network.client[9] 	avg_time[9] 	0.011013330753
scalar abilene_cost_network.client[9] 	interests_sent[9] 	179985
