version 2
run General-34-20140708-17:25:30-17240
attr D costprobtailcons
attr F nrr
attr R lru
attr a 1
attr configname General
attr csize 1e3
attr ctlg 1e5
attr datetime 20140708-17:25:30
attr experiment General
attr inifile omnetpp.ini
attr iterationvars "$net=abilene_cost, $rep=18, $priceratiovalue=10, $weights=0.333_0.333_0.334, $lambda=100, $a=1, $ctlg=1e5, $F=nrr, $ttl=1000, $D=costprobtailcons, $xi=1, $R=lru, $csize=1e3, $pricebits=0, $window=60, $variance=0.05, $mytime=1800"
attr iterationvars2 "$net=abilene_cost, $rep=18, $priceratiovalue=10, $weights=0.333_0.333_0.334, $lambda=100, $a=1, $ctlg=1e5, $F=nrr, $ttl=1000, $D=costprobtailcons, $xi=1, $R=lru, $csize=1e3, $pricebits=0, $window=60, $variance=0.05, $mytime=1800, $repetition=0"
attr lambda 100
attr measurement "$net=abilene_cost, $rep=18, $priceratiovalue=10, $weights=0.333_0.333_0.334, $lambda=100, $a=1, $ctlg=1e5, $F=nrr, $ttl=1000, $D=costprobtailcons, $xi=1, $R=lru, $csize=1e3, $pricebits=0, $window=60, $variance=0.05, $mytime=1800"
attr mytime 1800
attr net abilene_cost
attr network "networks.${net=abilene_cost, geant_cost}_network"
attr pricebits 0
attr priceratiovalue 10
attr processid 17240
attr rep 18
attr repetition 0
attr replication #0
attr resultdir results
attr runnumber 34
attr seedset 18
attr ttl 1000
attr variance 0.05
attr weights 0.333_0.333_0.334
attr window 60
attr xi 1

scalar . 	a 	1
scalar . 	csize 	1e3
scalar . 	ctlg 	1e5
scalar . 	lambda 	100
scalar . 	mytime 	1800
scalar . 	pricebits 	0
scalar . 	priceratiovalue 	10
scalar . 	rep 	18
scalar . 	ttl 	1000
scalar . 	variance 	0.05
scalar . 	window 	60
scalar . 	xi 	1
scalar abilene_cost_network.content_distribution 	repo-0 	11
scalar abilene_cost_network.content_distribution 	repo-1 	12
scalar abilene_cost_network.content_distribution 	repo-2 	13
scalar abilene_cost_network.content_distribution 	client-0 	5
scalar abilene_cost_network.content_distribution 	client-1 	0
scalar abilene_cost_network.content_distribution 	client-2 	9
scalar abilene_cost_network.content_distribution 	repo-0_card 	33459
scalar abilene_cost_network.content_distribution 	repo-1_card 	33216
scalar abilene_cost_network.content_distribution 	repo-2_card 	33325
scalar abilene_cost_network.statistics 	repo_popularity[0] 	0.37544107217466
scalar abilene_cost_network.statistics 	repo_popularity[1] 	0.27083019094872
scalar abilene_cost_network.statistics 	repo_popularity[2] 	0.35372873687662
scalar abilene_cost_network.statistics 	stabilization_time 	64.7
scalar abilene_cost_network.node[1].face$o[4].channel 	price[1] 	0
scalar abilene_cost_network.node[1].face$o[4].channel 	represented_price[1] 	0
scalar abilene_cost_network.node[7].face$o[4].channel 	price[7] 	0
scalar abilene_cost_network.node[7].face$o[4].channel 	represented_price[7] 	0
scalar abilene_cost_network.node[10].face$o[4].channel 	price[10] 	0
scalar abilene_cost_network.node[10].face$o[4].channel 	represented_price[10] 	0
scalar abilene_cost_network.node[11].face$o[1].channel 	price[11] 	0
scalar abilene_cost_network.node[11].face$o[1].channel 	represented_price[11] 	0
scalar abilene_cost_network.node[12].face$o[1].channel 	price[12] 	1
scalar abilene_cost_network.node[12].face$o[1].channel 	represented_price[12] 	1
scalar abilene_cost_network.node[13].face$o[1].channel 	price[13] 	10
scalar abilene_cost_network.node[13].face$o[1].channel 	represented_price[13] 	10
scalar abilene_cost_network.statistics 	p_hit 	0.093207301394374
scalar abilene_cost_network.statistics 	interests 	147506.07142857
scalar abilene_cost_network.statistics 	data 	108936.57142857
scalar abilene_cost_network.statistics 	hdistance 	3.5092496524811
scalar abilene_cost_network.statistics 	avg_time 	0.014101451129
scalar abilene_cost_network.statistics 	downloads 	533107
scalar abilene_cost_network.statistics 	total_cost 	745689
scalar abilene_cost_network.statistics 	total_replicas 	100000
scalar abilene_cost_network.statistics 	inner_hit 	0.36105697355315
scalar abilene_cost_network.statistics 	interests_sent 	539979
scalar abilene_cost_network.node[0].core_layer 	interests[0] 	198653
scalar abilene_cost_network.node[0].core_layer 	data[0] 	152671
scalar abilene_cost_network.node[0].core_layer 	repo_int[0] 	340625
scalar abilene_cost_network.node[0].content_store 	p_hit[0] 	0.22508091999617
scalar abilene_cost_network.node[0].content_store 	hits[0] 	44713
scalar abilene_cost_network.node[0].content_store 	misses[0] 	153940
scalar abilene_cost_network.node[0].content_store 	decision_yes[0] 	86
scalar abilene_cost_network.node[0].content_store 	decision_no[0] 	152585
scalar abilene_cost_network.node[0].content_store 	decision_ratio[0] 	0.0005633027883488
scalar abilene_cost_network.node[0].content_store 	correction_factor[0] 	1.7988163375197e-316
scalar abilene_cost_network.node[0].content_store 	xi[0] 	1
scalar abilene_cost_network.node[1].core_layer 	interests[1] 	219678
scalar abilene_cost_network.node[1].core_layer 	data[1] 	179561
scalar abilene_cost_network.node[1].content_store 	p_hit[1] 	0.18262638953377
scalar abilene_cost_network.node[1].content_store 	hits[1] 	40119
scalar abilene_cost_network.node[1].content_store 	misses[1] 	179559
scalar abilene_cost_network.node[1].content_store 	decision_yes[1] 	104
scalar abilene_cost_network.node[1].content_store 	decision_no[1] 	179457
scalar abilene_cost_network.node[1].content_store 	decision_ratio[1] 	0.00057919035870818
scalar abilene_cost_network.node[1].content_store 	correction_factor[1] 	1.7988084324694e-316
scalar abilene_cost_network.node[1].content_store 	xi[1] 	1
scalar abilene_cost_network.node[2].core_layer 	interests[2] 	163063
scalar abilene_cost_network.node[2].core_layer 	data[2] 	152963
scalar abilene_cost_network.node[2].content_store 	p_hit[2] 	0.0619453830728
scalar abilene_cost_network.node[2].content_store 	hits[2] 	10101
scalar abilene_cost_network.node[2].content_store 	misses[2] 	152962
scalar abilene_cost_network.node[2].content_store 	decision_yes[2] 	89
scalar abilene_cost_network.node[2].content_store 	decision_no[2] 	152874
scalar abilene_cost_network.node[2].content_store 	decision_ratio[2] 	0.00058184005282323
scalar abilene_cost_network.node[2].content_store 	correction_factor[2] 	1.7987736502479e-316
scalar abilene_cost_network.node[2].content_store 	xi[2] 	1
scalar abilene_cost_network.node[3].core_layer 	interests[3] 	155187
scalar abilene_cost_network.node[3].core_layer 	data[3] 	151228
scalar abilene_cost_network.node[3].content_store 	p_hit[3] 	0.025524045184197
scalar abilene_cost_network.node[3].content_store 	hits[3] 	3961
scalar abilene_cost_network.node[3].content_store 	misses[3] 	151226
scalar abilene_cost_network.node[3].content_store 	decision_yes[3] 	0
scalar abilene_cost_network.node[3].content_store 	decision_no[3] 	151228
scalar abilene_cost_network.node[3].content_store 	decision_ratio[3] 	0
scalar abilene_cost_network.node[3].content_store 	correction_factor[3] 	1.7986819516641e-316
scalar abilene_cost_network.node[3].content_store 	xi[3] 	1
scalar abilene_cost_network.node[4].core_layer 	interests[4] 	118385
scalar abilene_cost_network.node[4].core_layer 	data[4] 	117118
scalar abilene_cost_network.node[4].content_store 	p_hit[4] 	0.010727710436288
scalar abilene_cost_network.node[4].content_store 	hits[4] 	1270
scalar abilene_cost_network.node[4].content_store 	misses[4] 	117115
scalar abilene_cost_network.node[4].content_store 	decision_yes[4] 	0
scalar abilene_cost_network.node[4].content_store 	decision_no[4] 	117118
scalar abilene_cost_network.node[4].content_store 	decision_ratio[4] 	0
scalar abilene_cost_network.node[4].content_store 	correction_factor[4] 	1.7994566465968e-316
scalar abilene_cost_network.node[4].content_store 	xi[4] 	1
scalar abilene_cost_network.node[5].core_layer 	interests[5] 	180976
scalar abilene_cost_network.node[5].core_layer 	data[5] 	165085
scalar abilene_cost_network.node[5].content_store 	p_hit[5] 	0.062980726726196
scalar abilene_cost_network.node[5].content_store 	hits[5] 	11398
scalar abilene_cost_network.node[5].content_store 	misses[5] 	169578
scalar abilene_cost_network.node[5].content_store 	decision_yes[5] 	99
scalar abilene_cost_network.node[5].content_store 	decision_no[5] 	164986
scalar abilene_cost_network.node[5].content_store 	decision_ratio[5] 	0.00059969106823757
scalar abilene_cost_network.node[5].content_store 	correction_factor[5] 	1.7998471560832e-316
scalar abilene_cost_network.node[5].content_store 	xi[5] 	1
scalar abilene_cost_network.node[6].core_layer 	interests[6] 	53003
scalar abilene_cost_network.node[6].core_layer 	data[6] 	45175
scalar abilene_cost_network.node[6].content_store 	p_hit[6] 	0.14767088655359
scalar abilene_cost_network.node[6].content_store 	hits[6] 	7827
scalar abilene_cost_network.node[6].content_store 	misses[6] 	45176
scalar abilene_cost_network.node[6].content_store 	decision_yes[6] 	0
scalar abilene_cost_network.node[6].content_store 	decision_no[6] 	45175
scalar abilene_cost_network.node[6].content_store 	decision_ratio[6] 	0
scalar abilene_cost_network.node[6].content_store 	correction_factor[6] 	1.7998392510329e-316
scalar abilene_cost_network.node[6].content_store 	xi[6] 	1
scalar abilene_cost_network.node[7].core_layer 	interests[7] 	118937
scalar abilene_cost_network.node[7].core_layer 	data[7] 	91235
scalar abilene_cost_network.node[7].content_store 	p_hit[7] 	0.23290481515424
scalar abilene_cost_network.node[7].content_store 	hits[7] 	27701
scalar abilene_cost_network.node[7].content_store 	misses[7] 	91236
scalar abilene_cost_network.node[7].content_store 	decision_yes[7] 	124
scalar abilene_cost_network.node[7].content_store 	decision_no[7] 	91111
scalar abilene_cost_network.node[7].content_store 	decision_ratio[7] 	0.0013591275278128
scalar abilene_cost_network.node[7].content_store 	correction_factor[7] 	1.8000400393114e-316
scalar abilene_cost_network.node[7].content_store 	xi[7] 	1
scalar abilene_cost_network.node[8].core_layer 	interests[8] 	58516
scalar abilene_cost_network.node[8].core_layer 	data[8] 	51230
scalar abilene_cost_network.node[8].content_store 	p_hit[8] 	0.12449586437897
scalar abilene_cost_network.node[8].content_store 	hits[8] 	7285
scalar abilene_cost_network.node[8].content_store 	misses[8] 	51231
scalar abilene_cost_network.node[8].content_store 	decision_yes[8] 	0
scalar abilene_cost_network.node[8].content_store 	decision_no[8] 	51230
scalar abilene_cost_network.node[8].content_store 	decision_ratio[8] 	0
scalar abilene_cost_network.node[8].content_store 	correction_factor[8] 	1.8002392465798e-316
scalar abilene_cost_network.node[8].content_store 	xi[8] 	1
scalar abilene_cost_network.node[9].core_layer 	interests[9] 	194308
scalar abilene_cost_network.node[9].core_layer 	data[9] 	164352
scalar abilene_cost_network.node[9].content_store 	p_hit[9] 	0.14845503015831
scalar abilene_cost_network.node[9].content_store 	hits[9] 	28846
scalar abilene_cost_network.node[9].content_store 	misses[9] 	165462
scalar abilene_cost_network.node[9].content_store 	decision_yes[9] 	85
scalar abilene_cost_network.node[9].content_store 	decision_no[9] 	164267
scalar abilene_cost_network.node[9].content_store 	decision_ratio[9] 	0.00051718263239875
scalar abilene_cost_network.node[9].content_store 	correction_factor[9] 	1.8004416158683e-316
scalar abilene_cost_network.node[9].content_store 	xi[9] 	1
scalar abilene_cost_network.node[10].core_layer 	interests[10] 	263754
scalar abilene_cost_network.node[10].core_layer 	data[10] 	254494
scalar abilene_cost_network.node[10].content_store 	p_hit[10] 	0.035108472288572
scalar abilene_cost_network.node[10].content_store 	hits[10] 	9260
scalar abilene_cost_network.node[10].content_store 	misses[10] 	254494
scalar abilene_cost_network.node[10].content_store 	decision_yes[10] 	170
scalar abilene_cost_network.node[10].content_store 	decision_no[10] 	254324
scalar abilene_cost_network.node[10].content_store 	decision_ratio[10] 	0.00066799217270348
scalar abilene_cost_network.node[10].content_store 	correction_factor[10] 	1.8013740165551e-316
scalar abilene_cost_network.node[10].content_store 	xi[10] 	1
scalar abilene_cost_network.node[11].core_layer 	interests[11] 	198458
scalar abilene_cost_network.node[11].core_layer 	repo_load[11] 	198458
scalar abilene_cost_network.node[11].core_layer 	data[11] 	0
scalar abilene_cost_network.node[11].content_store 	p_hit[11] 	0
scalar abilene_cost_network.node[11].content_store 	hits[11] 	0
scalar abilene_cost_network.node[11].content_store 	misses[11] 	198458
scalar abilene_cost_network.node[11].content_store 	decision_yes[11] 	0
scalar abilene_cost_network.node[11].content_store 	decision_no[11] 	198458
scalar abilene_cost_network.node[11].content_store 	decision_ratio[11] 	0
scalar abilene_cost_network.node[12].core_layer 	interests[12] 	75109
scalar abilene_cost_network.node[12].core_layer 	repo_load[12] 	75109
scalar abilene_cost_network.node[12].core_layer 	data[12] 	0
scalar abilene_cost_network.node[12].content_store 	p_hit[12] 	0
scalar abilene_cost_network.node[12].content_store 	hits[12] 	0
scalar abilene_cost_network.node[12].content_store 	misses[12] 	75109
scalar abilene_cost_network.node[12].content_store 	decision_yes[12] 	0
scalar abilene_cost_network.node[12].content_store 	decision_no[12] 	75109
scalar abilene_cost_network.node[12].content_store 	decision_ratio[12] 	0
scalar abilene_cost_network.node[13].core_layer 	interests[13] 	67058
scalar abilene_cost_network.node[13].core_layer 	repo_load[13] 	67058
scalar abilene_cost_network.node[13].core_layer 	data[13] 	0
scalar abilene_cost_network.node[13].content_store 	p_hit[13] 	0
scalar abilene_cost_network.node[13].content_store 	hits[13] 	0
scalar abilene_cost_network.node[13].content_store 	misses[13] 	67058
scalar abilene_cost_network.node[13].content_store 	decision_yes[13] 	0
scalar abilene_cost_network.node[13].content_store 	decision_no[13] 	67058
scalar abilene_cost_network.node[13].content_store 	decision_ratio[13] 	0
scalar abilene_cost_network.client[0] 	hdistance[0] 	2.8586755954885
scalar abilene_cost_network.client[0] 	downloads[0] 	178299
scalar abilene_cost_network.client[0] 	avg_time[0] 	0.011522211679
scalar abilene_cost_network.client[0] 	interests_sent[0] 	179568
scalar abilene_cost_network.client[5] 	hdistance[5] 	4.9243447316194
scalar abilene_cost_network.client[5] 	downloads[5] 	175348
scalar abilene_cost_network.client[5] 	avg_time[5] 	0.02027625204
scalar abilene_cost_network.client[5] 	interests_sent[5] 	179841
scalar abilene_cost_network.client[9] 	hdistance[9] 	2.7447286303354
scalar abilene_cost_network.client[9] 	downloads[9] 	179460
scalar abilene_cost_network.client[9] 	avg_time[9] 	0.01050588967
scalar abilene_cost_network.client[9] 	interests_sent[9] 	180570
