version 2
run General-28-20140708-17:24:58-17234
attr D costprobtailcons
attr F nrr
attr R lru
attr a 1
attr configname General
attr csize 1e3
attr ctlg 1e5
attr datetime 20140708-17:24:58
attr experiment General
attr inifile omnetpp.ini
attr iterationvars "$net=abilene_cost, $rep=15, $priceratiovalue=10, $weights=0.333_0.333_0.334, $lambda=100, $a=1, $ctlg=1e5, $F=nrr, $ttl=1000, $D=costprobtailcons, $xi=1, $R=lru, $csize=1e3, $pricebits=0, $window=60, $variance=0.05, $mytime=1800"
attr iterationvars2 "$net=abilene_cost, $rep=15, $priceratiovalue=10, $weights=0.333_0.333_0.334, $lambda=100, $a=1, $ctlg=1e5, $F=nrr, $ttl=1000, $D=costprobtailcons, $xi=1, $R=lru, $csize=1e3, $pricebits=0, $window=60, $variance=0.05, $mytime=1800, $repetition=0"
attr lambda 100
attr measurement "$net=abilene_cost, $rep=15, $priceratiovalue=10, $weights=0.333_0.333_0.334, $lambda=100, $a=1, $ctlg=1e5, $F=nrr, $ttl=1000, $D=costprobtailcons, $xi=1, $R=lru, $csize=1e3, $pricebits=0, $window=60, $variance=0.05, $mytime=1800"
attr mytime 1800
attr net abilene_cost
attr network "networks.${net=abilene_cost, geant_cost}_network"
attr pricebits 0
attr priceratiovalue 10
attr processid 17234
attr rep 15
attr repetition 0
attr replication #0
attr resultdir results
attr runnumber 28
attr seedset 15
attr ttl 1000
attr variance 0.05
attr weights 0.333_0.333_0.334
attr window 60
attr xi 1

scalar . 	a 	1
scalar . 	csize 	1e3
scalar . 	ctlg 	1e5
scalar . 	lambda 	100
scalar . 	mytime 	1800
scalar . 	pricebits 	0
scalar . 	priceratiovalue 	10
scalar . 	rep 	15
scalar . 	ttl 	1000
scalar . 	variance 	0.05
scalar . 	window 	60
scalar . 	xi 	1
scalar abilene_cost_network.content_distribution 	repo-0 	11
scalar abilene_cost_network.content_distribution 	repo-1 	12
scalar abilene_cost_network.content_distribution 	repo-2 	13
scalar abilene_cost_network.content_distribution 	client-0 	5
scalar abilene_cost_network.content_distribution 	client-1 	0
scalar abilene_cost_network.content_distribution 	client-2 	9
scalar abilene_cost_network.content_distribution 	repo-0_card 	33353
scalar abilene_cost_network.content_distribution 	repo-1_card 	33285
scalar abilene_cost_network.content_distribution 	repo-2_card 	33362
scalar abilene_cost_network.statistics 	repo_popularity[0] 	0.34920511897542
scalar abilene_cost_network.statistics 	repo_popularity[1] 	0.27009721586053
scalar abilene_cost_network.statistics 	repo_popularity[2] 	0.38069766516405
scalar abilene_cost_network.statistics 	stabilization_time 	66
scalar abilene_cost_network.node[1].face$o[4].channel 	price[1] 	0
scalar abilene_cost_network.node[1].face$o[4].channel 	represented_price[1] 	0
scalar abilene_cost_network.node[7].face$o[4].channel 	price[7] 	0
scalar abilene_cost_network.node[7].face$o[4].channel 	represented_price[7] 	0
scalar abilene_cost_network.node[10].face$o[4].channel 	price[10] 	0
scalar abilene_cost_network.node[10].face$o[4].channel 	represented_price[10] 	0
scalar abilene_cost_network.node[11].face$o[1].channel 	price[11] 	0
scalar abilene_cost_network.node[11].face$o[1].channel 	represented_price[11] 	0
scalar abilene_cost_network.node[12].face$o[1].channel 	price[12] 	1
scalar abilene_cost_network.node[12].face$o[1].channel 	represented_price[12] 	1
scalar abilene_cost_network.node[13].face$o[1].channel 	price[13] 	10
scalar abilene_cost_network.node[13].face$o[1].channel 	represented_price[13] 	10
scalar abilene_cost_network.statistics 	p_hit 	0.09915946533977
scalar abilene_cost_network.statistics 	interests 	145732.07142857
scalar abilene_cost_network.statistics 	data 	107118.92857143
scalar abilene_cost_network.statistics 	hdistance 	3.4364459816975
scalar abilene_cost_network.statistics 	avg_time 	0.014076793603
scalar abilene_cost_network.statistics 	downloads 	534199
scalar abilene_cost_network.statistics 	total_cost 	755597
scalar abilene_cost_network.statistics 	total_replicas 	100000
scalar abilene_cost_network.statistics 	inner_hit 	0.37872403355304
scalar abilene_cost_network.statistics 	interests_sent 	540595
scalar abilene_cost_network.node[0].core_layer 	interests[0] 	188996
scalar abilene_cost_network.node[0].core_layer 	data[0] 	168950
scalar abilene_cost_network.node[0].core_layer 	repo_int[0] 	331885
scalar abilene_cost_network.node[0].content_store 	p_hit[0] 	0.097107875298948
scalar abilene_cost_network.node[0].content_store 	hits[0] 	18353
scalar abilene_cost_network.node[0].content_store 	misses[0] 	170643
scalar abilene_cost_network.node[0].content_store 	decision_yes[0] 	120
scalar abilene_cost_network.node[0].content_store 	decision_no[0] 	168830
scalar abilene_cost_network.node[0].content_store 	decision_ratio[0] 	0.00071026931044688
scalar abilene_cost_network.node[0].content_store 	correction_factor[0] 	1.272049079459e-316
scalar abilene_cost_network.node[0].content_store 	xi[0] 	1
scalar abilene_cost_network.node[1].core_layer 	interests[1] 	218470
scalar abilene_cost_network.node[1].core_layer 	data[1] 	177370
scalar abilene_cost_network.node[1].content_store 	p_hit[1] 	0.18813567080148
scalar abilene_cost_network.node[1].content_store 	hits[1] 	41102
scalar abilene_cost_network.node[1].content_store 	misses[1] 	177368
scalar abilene_cost_network.node[1].content_store 	decision_yes[1] 	61
scalar abilene_cost_network.node[1].content_store 	decision_no[1] 	177309
scalar abilene_cost_network.node[1].content_store 	decision_ratio[1] 	0.00034391385239894
scalar abilene_cost_network.node[1].content_store 	correction_factor[1] 	1.2720411744087e-316
scalar abilene_cost_network.node[1].content_store 	xi[1] 	1
scalar abilene_cost_network.node[2].core_layer 	interests[2] 	156548
scalar abilene_cost_network.node[2].core_layer 	data[2] 	148333
scalar abilene_cost_network.node[2].content_store 	p_hit[2] 	0.052488693563635
scalar abilene_cost_network.node[2].content_store 	hits[2] 	8217
scalar abilene_cost_network.node[2].content_store 	misses[2] 	148331
scalar abilene_cost_network.node[2].content_store 	decision_yes[2] 	145
scalar abilene_cost_network.node[2].content_store 	decision_no[2] 	148188
scalar abilene_cost_network.node[2].content_store 	decision_ratio[2] 	0.00097753028658491
scalar abilene_cost_network.node[2].content_store 	correction_factor[2] 	1.2720063921872e-316
scalar abilene_cost_network.node[2].content_store 	xi[2] 	1
scalar abilene_cost_network.node[3].core_layer 	interests[3] 	148655
scalar abilene_cost_network.node[3].core_layer 	data[3] 	146646
scalar abilene_cost_network.node[3].content_store 	p_hit[3] 	0.013527967441391
scalar abilene_cost_network.node[3].content_store 	hits[3] 	2011
scalar abilene_cost_network.node[3].content_store 	misses[3] 	146644
scalar abilene_cost_network.node[3].content_store 	decision_yes[3] 	0
scalar abilene_cost_network.node[3].content_store 	decision_no[3] 	146646
scalar abilene_cost_network.node[3].content_store 	decision_ratio[3] 	0
scalar abilene_cost_network.node[3].content_store 	correction_factor[3] 	1.2719146936034e-316
scalar abilene_cost_network.node[3].content_store 	xi[3] 	1
scalar abilene_cost_network.node[4].core_layer 	interests[4] 	110345
scalar abilene_cost_network.node[4].core_layer 	data[4] 	109211
scalar abilene_cost_network.node[4].content_store 	p_hit[4] 	0.010285921428248
scalar abilene_cost_network.node[4].content_store 	hits[4] 	1135
scalar abilene_cost_network.node[4].content_store 	misses[4] 	109210
scalar abilene_cost_network.node[4].content_store 	decision_yes[4] 	0
scalar abilene_cost_network.node[4].content_store 	decision_no[4] 	109211
scalar abilene_cost_network.node[4].content_store 	decision_ratio[4] 	0
scalar abilene_cost_network.node[4].content_store 	correction_factor[4] 	1.2726893885361e-316
scalar abilene_cost_network.node[4].content_store 	xi[4] 	1
scalar abilene_cost_network.node[5].core_layer 	interests[5] 	181654
scalar abilene_cost_network.node[5].core_layer 	data[5] 	165513
scalar abilene_cost_network.node[5].content_store 	p_hit[5] 	0.064551289814703
scalar abilene_cost_network.node[5].content_store 	hits[5] 	11726
scalar abilene_cost_network.node[5].content_store 	misses[5] 	169928
scalar abilene_cost_network.node[5].content_store 	decision_yes[5] 	107
scalar abilene_cost_network.node[5].content_store 	decision_no[5] 	165406
scalar abilene_cost_network.node[5].content_store 	decision_ratio[5] 	0.00064647489925263
scalar abilene_cost_network.node[5].content_store 	correction_factor[5] 	1.2730798980225e-316
scalar abilene_cost_network.node[5].content_store 	xi[5] 	1
scalar abilene_cost_network.node[6].core_layer 	interests[6] 	59292
scalar abilene_cost_network.node[6].core_layer 	data[6] 	53776
scalar abilene_cost_network.node[6].content_store 	p_hit[6] 	0.093031100317075
scalar abilene_cost_network.node[6].content_store 	hits[6] 	5516
scalar abilene_cost_network.node[6].content_store 	misses[6] 	53776
scalar abilene_cost_network.node[6].content_store 	decision_yes[6] 	0
scalar abilene_cost_network.node[6].content_store 	decision_no[6] 	53776
scalar abilene_cost_network.node[6].content_store 	decision_ratio[6] 	0
scalar abilene_cost_network.node[6].content_store 	correction_factor[6] 	1.2730719929722e-316
scalar abilene_cost_network.node[6].content_store 	xi[6] 	1
scalar abilene_cost_network.node[7].core_layer 	interests[7] 	130134
scalar abilene_cost_network.node[7].core_layer 	data[7] 	97270
scalar abilene_cost_network.node[7].content_store 	p_hit[7] 	0.25253968985815
scalar abilene_cost_network.node[7].content_store 	hits[7] 	32864
scalar abilene_cost_network.node[7].content_store 	misses[7] 	97270
scalar abilene_cost_network.node[7].content_store 	decision_yes[7] 	93
scalar abilene_cost_network.node[7].content_store 	decision_no[7] 	97177
scalar abilene_cost_network.node[7].content_store 	decision_ratio[7] 	0.0009561015729413
scalar abilene_cost_network.node[7].content_store 	correction_factor[7] 	1.2732727812507e-316
scalar abilene_cost_network.node[7].content_store 	xi[7] 	1
scalar abilene_cost_network.node[8].core_layer 	interests[8] 	63602
scalar abilene_cost_network.node[8].core_layer 	data[8] 	57791
scalar abilene_cost_network.node[8].content_store 	p_hit[8] 	0.091365051413478
scalar abilene_cost_network.node[8].content_store 	hits[8] 	5811
scalar abilene_cost_network.node[8].content_store 	misses[8] 	57791
scalar abilene_cost_network.node[8].content_store 	decision_yes[8] 	0
scalar abilene_cost_network.node[8].content_store 	decision_no[8] 	57791
scalar abilene_cost_network.node[8].content_store 	decision_ratio[8] 	0
scalar abilene_cost_network.node[8].content_store 	correction_factor[8] 	1.2734719885191e-316
scalar abilene_cost_network.node[8].content_store 	xi[8] 	1
scalar abilene_cost_network.node[9].core_layer 	interests[9] 	202352
scalar abilene_cost_network.node[9].core_layer 	data[9] 	144891
scalar abilene_cost_network.node[9].content_store 	p_hit[9] 	0.28254230252234
scalar abilene_cost_network.node[9].content_store 	hits[9] 	57173
scalar abilene_cost_network.node[9].content_store 	misses[9] 	145179
scalar abilene_cost_network.node[9].content_store 	decision_yes[9] 	106
scalar abilene_cost_network.node[9].content_store 	decision_no[9] 	144785
scalar abilene_cost_network.node[9].content_store 	decision_ratio[9] 	0.00073158443243542
scalar abilene_cost_network.node[9].content_store 	correction_factor[9] 	1.2736743578076e-316
scalar abilene_cost_network.node[9].content_store 	xi[9] 	1
scalar abilene_cost_network.node[10].core_layer 	interests[10] 	248316
scalar abilene_cost_network.node[10].core_layer 	data[10] 	229914
scalar abilene_cost_network.node[10].content_store 	p_hit[10] 	0.074107186004929
scalar abilene_cost_network.node[10].content_store 	hits[10] 	18402
scalar abilene_cost_network.node[10].content_store 	misses[10] 	229914
scalar abilene_cost_network.node[10].content_store 	decision_yes[10] 	117
scalar abilene_cost_network.node[10].content_store 	decision_no[10] 	229797
scalar abilene_cost_network.node[10].content_store 	decision_ratio[10] 	0.00050888593126125
scalar abilene_cost_network.node[10].content_store 	correction_factor[10] 	1.2746067584944e-316
scalar abilene_cost_network.node[10].content_store 	xi[10] 	1
scalar abilene_cost_network.node[11].core_layer 	interests[11] 	186704
scalar abilene_cost_network.node[11].core_layer 	repo_load[11] 	186704
scalar abilene_cost_network.node[11].core_layer 	data[11] 	0
scalar abilene_cost_network.node[11].content_store 	p_hit[11] 	0
scalar abilene_cost_network.node[11].content_store 	hits[11] 	0
scalar abilene_cost_network.node[11].content_store 	misses[11] 	186704
scalar abilene_cost_network.node[11].content_store 	decision_yes[11] 	0
scalar abilene_cost_network.node[11].content_store 	decision_no[11] 	186704
scalar abilene_cost_network.node[11].content_store 	decision_ratio[11] 	0
scalar abilene_cost_network.node[12].core_layer 	interests[12] 	77357
scalar abilene_cost_network.node[12].core_layer 	repo_load[12] 	77357
scalar abilene_cost_network.node[12].core_layer 	data[12] 	0
scalar abilene_cost_network.node[12].content_store 	p_hit[12] 	0
scalar abilene_cost_network.node[12].content_store 	hits[12] 	0
scalar abilene_cost_network.node[12].content_store 	misses[12] 	77357
scalar abilene_cost_network.node[12].content_store 	decision_yes[12] 	0
scalar abilene_cost_network.node[12].content_store 	decision_no[12] 	77357
scalar abilene_cost_network.node[12].content_store 	decision_ratio[12] 	0
scalar abilene_cost_network.node[13].core_layer 	interests[13] 	67824
scalar abilene_cost_network.node[13].core_layer 	repo_load[13] 	67824
scalar abilene_cost_network.node[13].core_layer 	data[13] 	0
scalar abilene_cost_network.node[13].content_store 	p_hit[13] 	0
scalar abilene_cost_network.node[13].content_store 	hits[13] 	0
scalar abilene_cost_network.node[13].content_store 	misses[13] 	67824
scalar abilene_cost_network.node[13].content_store 	decision_yes[13] 	0
scalar abilene_cost_network.node[13].content_store 	decision_no[13] 	67824
scalar abilene_cost_network.node[13].content_store 	decision_ratio[13] 	0
scalar abilene_cost_network.client[0] 	hdistance[0] 	2.9440641063052
scalar abilene_cost_network.client[0] 	downloads[0] 	178204
scalar abilene_cost_network.client[0] 	avg_time[0] 	0.012509272425
scalar abilene_cost_network.client[0] 	interests_sent[0] 	179897
scalar abilene_cost_network.client[5] 	hdistance[5] 	4.8714892699725
scalar abilene_cost_network.client[5] 	downloads[5] 	176281
scalar abilene_cost_network.client[5] 	avg_time[5] 	0.020363193853
scalar abilene_cost_network.client[5] 	interests_sent[5] 	180696
scalar abilene_cost_network.client[9] 	hdistance[9] 	2.4937845688149
scalar abilene_cost_network.client[9] 	downloads[9] 	179714
scalar abilene_cost_network.client[9] 	avg_time[9] 	0.009357914533
scalar abilene_cost_network.client[9] 	interests_sent[9] 	180002
