version 2
run General-6-20140626-15:19:34-16299
attr D costprobcoinplain0.01
attr F nrr
attr R lru
attr a 1
attr configname General
attr csize 1e3
attr ctlg 1e5
attr datetime 20140626-15:19:34
attr experiment General
attr inifile omnetpp.ini
attr iterationvars "$net=geant_cost, $rep=1, $priceratiovalue=10, $weights=0.333_0.333_0.334, $lambda=100, $a=1, $ctlg=1e5, $F=nrr, $ttl=1000, $D=costprobcoinplain0.01, $xi=1, $R=lru, $csize=1e3, $pricebits=0, $mytime=1800"
attr iterationvars2 "$net=geant_cost, $rep=1, $priceratiovalue=10, $weights=0.333_0.333_0.334, $lambda=100, $a=1, $ctlg=1e5, $F=nrr, $ttl=1000, $D=costprobcoinplain0.01, $xi=1, $R=lru, $csize=1e3, $pricebits=0, $mytime=1800, $repetition=0"
attr lambda 100
attr measurement "$net=geant_cost, $rep=1, $priceratiovalue=10, $weights=0.333_0.333_0.334, $lambda=100, $a=1, $ctlg=1e5, $F=nrr, $ttl=1000, $D=costprobcoinplain0.01, $xi=1, $R=lru, $csize=1e3, $pricebits=0, $mytime=1800"
attr mytime 1800
attr net geant_cost
attr network networks.${net=geant_cost}_network
attr pricebits 0
attr priceratiovalue 10
attr processid 16299
attr rep 1
attr repetition 0
attr replication #0
attr resultdir results
attr runnumber 6
attr seedset 1
attr ttl 1000
attr weights 0.333_0.333_0.334
attr xi 1

scalar . 	a 	1
scalar . 	csize 	1e3
scalar . 	ctlg 	1e5
scalar . 	lambda 	100
scalar . 	mytime 	1800
scalar . 	pricebits 	0
scalar . 	priceratiovalue 	10
scalar . 	rep 	1
scalar . 	ttl 	1000
scalar . 	xi 	1
scalar geant_cost_network.content_distribution 	repo-0 	22
scalar geant_cost_network.content_distribution 	repo-1 	23
scalar geant_cost_network.content_distribution 	repo-2 	24
scalar geant_cost_network.content_distribution 	client-0 	20
scalar geant_cost_network.content_distribution 	client-1 	10
scalar geant_cost_network.content_distribution 	client-2 	12
scalar geant_cost_network.content_distribution 	client-3 	9
scalar geant_cost_network.content_distribution 	client-4 	5
scalar geant_cost_network.content_distribution 	repo-0_card 	33396
scalar geant_cost_network.content_distribution 	repo-1_card 	33039
scalar geant_cost_network.content_distribution 	repo-2_card 	33565
scalar geant_cost_network.statistics 	repo_popularity[0] 	0.28686251265602
scalar geant_cost_network.statistics 	repo_popularity[1] 	0.2886063426465
scalar geant_cost_network.statistics 	repo_popularity[2] 	0.42453114469748
scalar geant_cost_network.statistics 	stabilization_time 	36060
scalar geant_cost_network.node[7].face$o[4].channel 	price[7] 	0
scalar geant_cost_network.node[7].face$o[4].channel 	represented_price[7] 	0
scalar geant_cost_network.node[8].face$o[3].channel 	price[8] 	0
scalar geant_cost_network.node[8].face$o[3].channel 	represented_price[8] 	0
scalar geant_cost_network.node[21].face$o[5].channel 	price[21] 	0
scalar geant_cost_network.node[21].face$o[5].channel 	represented_price[21] 	0
scalar geant_cost_network.node[22].face$o[1].channel 	price[22] 	0
scalar geant_cost_network.node[22].face$o[1].channel 	represented_price[22] 	0
scalar geant_cost_network.node[23].face$o[1].channel 	price[23] 	1
scalar geant_cost_network.node[23].face$o[1].channel 	represented_price[23] 	1
scalar geant_cost_network.node[24].face$o[1].channel 	price[24] 	10
scalar geant_cost_network.node[24].face$o[1].channel 	represented_price[24] 	10
scalar geant_cost_network.statistics 	p_hit 	0.15910104030141
scalar geant_cost_network.statistics 	interests 	56979.64
scalar geant_cost_network.statistics 	data 	39040.4
scalar geant_cost_network.statistics 	hdistance 	2.6715415382214
scalar geant_cost_network.statistics 	avg_time 	0.00601337867
scalar geant_cost_network.statistics 	downloads 	448354
scalar geant_cost_network.statistics 	total_cost 	822257
scalar geant_cost_network.statistics 	total_replicas 	100000
scalar geant_cost_network.statistics 	inner_hit 	0.50576999424562
scalar geant_cost_network.statistics 	interests_sent 	448487
scalar geant_cost_network.node[0].core_layer 	interests[0] 	0
scalar geant_cost_network.node[0].core_layer 	data[0] 	0
scalar geant_cost_network.node[0].core_layer 	repo_int[0] 	221590
scalar geant_cost_network.node[0].content_store 	p_hit[0] 	-nan
scalar geant_cost_network.node[0].content_store 	hits[0] 	0
scalar geant_cost_network.node[0].content_store 	misses[0] 	0
scalar geant_cost_network.node[0].content_store 	decision_yes[0] 	0
scalar geant_cost_network.node[0].content_store 	decision_no[0] 	0
scalar geant_cost_network.node[0].content_store 	decision_ratio[0] 	0
scalar geant_cost_network.node[0].content_store 	correction_factor[0] 	0.001
scalar geant_cost_network.node[0].content_store 	xi[0] 	1
scalar geant_cost_network.node[1].core_layer 	interests[1] 	0
scalar geant_cost_network.node[1].core_layer 	data[1] 	0
scalar geant_cost_network.node[1].content_store 	p_hit[1] 	-nan
scalar geant_cost_network.node[1].content_store 	hits[1] 	0
scalar geant_cost_network.node[1].content_store 	misses[1] 	0
scalar geant_cost_network.node[1].content_store 	decision_yes[1] 	0
scalar geant_cost_network.node[1].content_store 	decision_no[1] 	0
scalar geant_cost_network.node[1].content_store 	decision_ratio[1] 	0
scalar geant_cost_network.node[1].content_store 	correction_factor[1] 	0.001
scalar geant_cost_network.node[1].content_store 	xi[1] 	1
scalar geant_cost_network.node[2].core_layer 	interests[2] 	0
scalar geant_cost_network.node[2].core_layer 	data[2] 	0
scalar geant_cost_network.node[2].content_store 	p_hit[2] 	-nan
scalar geant_cost_network.node[2].content_store 	hits[2] 	0
scalar geant_cost_network.node[2].content_store 	misses[2] 	0
scalar geant_cost_network.node[2].content_store 	decision_yes[2] 	0
scalar geant_cost_network.node[2].content_store 	decision_no[2] 	0
scalar geant_cost_network.node[2].content_store 	decision_ratio[2] 	0
scalar geant_cost_network.node[2].content_store 	correction_factor[2] 	0.001
scalar geant_cost_network.node[2].content_store 	xi[2] 	1
scalar geant_cost_network.node[3].core_layer 	interests[3] 	81981
scalar geant_cost_network.node[3].core_layer 	data[3] 	71602
scalar geant_cost_network.node[3].content_store 	p_hit[3] 	0.12660250545858
scalar geant_cost_network.node[3].content_store 	hits[3] 	10379
scalar geant_cost_network.node[3].content_store 	misses[3] 	71602
scalar geant_cost_network.node[3].content_store 	decision_yes[3] 	706
scalar geant_cost_network.node[3].content_store 	decision_no[3] 	70896
scalar geant_cost_network.node[3].content_store 	decision_ratio[3] 	0.0098600597748666
scalar geant_cost_network.node[3].content_store 	correction_factor[3] 	0.001
scalar geant_cost_network.node[3].content_store 	xi[3] 	1
scalar geant_cost_network.node[4].core_layer 	interests[4] 	100808
scalar geant_cost_network.node[4].core_layer 	data[4] 	96357
scalar geant_cost_network.node[4].content_store 	p_hit[4] 	0.044153241806206
scalar geant_cost_network.node[4].content_store 	hits[4] 	4451
scalar geant_cost_network.node[4].content_store 	misses[4] 	96357
scalar geant_cost_network.node[4].content_store 	decision_yes[4] 	936
scalar geant_cost_network.node[4].content_store 	decision_no[4] 	95421
scalar geant_cost_network.node[4].content_store 	decision_ratio[4] 	0.009713876521685
scalar geant_cost_network.node[4].content_store 	correction_factor[4] 	0.001
scalar geant_cost_network.node[4].content_store 	xi[4] 	1
scalar geant_cost_network.node[5].core_layer 	interests[5] 	93887
scalar geant_cost_network.node[5].core_layer 	data[5] 	61392
scalar geant_cost_network.node[5].content_store 	p_hit[5] 	0.34580932397457
scalar geant_cost_network.node[5].content_store 	hits[5] 	32467
scalar geant_cost_network.node[5].content_store 	misses[5] 	61420
scalar geant_cost_network.node[5].content_store 	decision_yes[5] 	554
scalar geant_cost_network.node[5].content_store 	decision_no[5] 	60838
scalar geant_cost_network.node[5].content_store 	decision_ratio[5] 	0.0090239770654157
scalar geant_cost_network.node[5].content_store 	correction_factor[5] 	0.001
scalar geant_cost_network.node[5].content_store 	xi[5] 	1
scalar geant_cost_network.node[6].core_layer 	interests[6] 	34829
scalar geant_cost_network.node[6].core_layer 	data[6] 	30489
scalar geant_cost_network.node[6].content_store 	p_hit[6] 	0.12460880300899
scalar geant_cost_network.node[6].content_store 	hits[6] 	4340
scalar geant_cost_network.node[6].content_store 	misses[6] 	30489
scalar geant_cost_network.node[6].content_store 	decision_yes[6] 	303
scalar geant_cost_network.node[6].content_store 	decision_no[6] 	30186
scalar geant_cost_network.node[6].content_store 	decision_ratio[6] 	0.0099380104299911
scalar geant_cost_network.node[6].content_store 	correction_factor[6] 	0.001
scalar geant_cost_network.node[6].content_store 	xi[6] 	1
scalar geant_cost_network.node[7].core_layer 	interests[7] 	110224
scalar geant_cost_network.node[7].core_layer 	data[7] 	106097
scalar geant_cost_network.node[7].content_store 	p_hit[7] 	0.037432863986065
scalar geant_cost_network.node[7].content_store 	hits[7] 	4126
scalar geant_cost_network.node[7].content_store 	misses[7] 	106098
scalar geant_cost_network.node[7].content_store 	decision_yes[7] 	1100
scalar geant_cost_network.node[7].content_store 	decision_no[7] 	104997
scalar geant_cost_network.node[7].content_store 	decision_ratio[7] 	0.010367870910582
scalar geant_cost_network.node[7].content_store 	correction_factor[7] 	0.001
scalar geant_cost_network.node[7].content_store 	xi[7] 	1
scalar geant_cost_network.node[8].core_layer 	interests[8] 	110682
scalar geant_cost_network.node[8].core_layer 	data[8] 	105857
scalar geant_cost_network.node[8].content_store 	p_hit[8] 	0.043593357546846
scalar geant_cost_network.node[8].content_store 	hits[8] 	4825
scalar geant_cost_network.node[8].content_store 	misses[8] 	105857
scalar geant_cost_network.node[8].content_store 	decision_yes[8] 	1012
scalar geant_cost_network.node[8].content_store 	decision_no[8] 	104845
scalar geant_cost_network.node[8].content_store 	decision_ratio[8] 	0.0095600668826814
scalar geant_cost_network.node[8].content_store 	correction_factor[8] 	0.001
scalar geant_cost_network.node[8].content_store 	xi[8] 	1
scalar geant_cost_network.node[9].core_layer 	interests[9] 	170852
scalar geant_cost_network.node[9].core_layer 	data[9] 	135720
scalar geant_cost_network.node[9].content_store 	p_hit[9] 	0.20523025776696
scalar geant_cost_network.node[9].content_store 	hits[9] 	35064
scalar geant_cost_network.node[9].content_store 	misses[9] 	135788
scalar geant_cost_network.node[9].content_store 	decision_yes[9] 	1361
scalar geant_cost_network.node[9].content_store 	decision_no[9] 	134359
scalar geant_cost_network.node[9].content_store 	decision_ratio[9] 	0.010027998821102
scalar geant_cost_network.node[9].content_store 	correction_factor[9] 	0.001
scalar geant_cost_network.node[9].content_store 	xi[9] 	1
scalar geant_cost_network.node[10].core_layer 	interests[10] 	94191
scalar geant_cost_network.node[10].core_layer 	data[10] 	60144
scalar geant_cost_network.node[10].content_store 	p_hit[10] 	0.36122347145693
scalar geant_cost_network.node[10].content_store 	hits[10] 	34024
scalar geant_cost_network.node[10].content_store 	misses[10] 	60167
scalar geant_cost_network.node[10].content_store 	decision_yes[10] 	598
scalar geant_cost_network.node[10].content_store 	decision_no[10] 	59546
scalar geant_cost_network.node[10].content_store 	decision_ratio[10] 	0.0099428039372173
scalar geant_cost_network.node[10].content_store 	correction_factor[10] 	0.001
scalar geant_cost_network.node[10].content_store 	xi[10] 	1
scalar geant_cost_network.node[11].core_layer 	interests[11] 	0
scalar geant_cost_network.node[11].core_layer 	data[11] 	0
scalar geant_cost_network.node[11].content_store 	p_hit[11] 	-nan
scalar geant_cost_network.node[11].content_store 	hits[11] 	0
scalar geant_cost_network.node[11].content_store 	misses[11] 	0
scalar geant_cost_network.node[11].content_store 	decision_yes[11] 	0
scalar geant_cost_network.node[11].content_store 	decision_no[11] 	0
scalar geant_cost_network.node[11].content_store 	decision_ratio[11] 	0
scalar geant_cost_network.node[11].content_store 	correction_factor[11] 	0.001
scalar geant_cost_network.node[11].content_store 	xi[11] 	1
scalar geant_cost_network.node[12].core_layer 	interests[12] 	142903
scalar geant_cost_network.node[12].core_layer 	data[12] 	106844
scalar geant_cost_network.node[12].content_store 	p_hit[12] 	0.2515552507645
scalar geant_cost_network.node[12].content_store 	hits[12] 	35948
scalar geant_cost_network.node[12].content_store 	misses[12] 	106955
scalar geant_cost_network.node[12].content_store 	decision_yes[12] 	1016
scalar geant_cost_network.node[12].content_store 	decision_no[12] 	105828
scalar geant_cost_network.node[12].content_store 	decision_ratio[12] 	0.0095091909700124
scalar geant_cost_network.node[12].content_store 	correction_factor[12] 	0.001
scalar geant_cost_network.node[12].content_store 	xi[12] 	1
scalar geant_cost_network.node[13].core_layer 	interests[13] 	15036
scalar geant_cost_network.node[13].core_layer 	data[13] 	3442
scalar geant_cost_network.node[13].content_store 	p_hit[13] 	0.77108273476989
scalar geant_cost_network.node[13].content_store 	hits[13] 	11594
scalar geant_cost_network.node[13].content_store 	misses[13] 	3442
scalar geant_cost_network.node[13].content_store 	decision_yes[13] 	36
scalar geant_cost_network.node[13].content_store 	decision_no[13] 	3406
scalar geant_cost_network.node[13].content_store 	decision_ratio[13] 	0.010459035444509
scalar geant_cost_network.node[13].content_store 	correction_factor[13] 	0.001
scalar geant_cost_network.node[13].content_store 	xi[13] 	1
scalar geant_cost_network.node[14].core_layer 	interests[14] 	31920
scalar geant_cost_network.node[14].core_layer 	data[14] 	22541
scalar geant_cost_network.node[14].content_store 	p_hit[14] 	0.2937030075188
scalar geant_cost_network.node[14].content_store 	hits[14] 	9375
scalar geant_cost_network.node[14].content_store 	misses[14] 	22545
scalar geant_cost_network.node[14].content_store 	decision_yes[14] 	226
scalar geant_cost_network.node[14].content_store 	decision_no[14] 	22315
scalar geant_cost_network.node[14].content_store 	decision_ratio[14] 	0.010026174526419
scalar geant_cost_network.node[14].content_store 	correction_factor[14] 	0.001
scalar geant_cost_network.node[14].content_store 	xi[14] 	1
scalar geant_cost_network.node[15].core_layer 	interests[15] 	0
scalar geant_cost_network.node[15].core_layer 	data[15] 	0
scalar geant_cost_network.node[15].content_store 	p_hit[15] 	-nan
scalar geant_cost_network.node[15].content_store 	hits[15] 	0
scalar geant_cost_network.node[15].content_store 	misses[15] 	0
scalar geant_cost_network.node[15].content_store 	decision_yes[15] 	0
scalar geant_cost_network.node[15].content_store 	decision_no[15] 	0
scalar geant_cost_network.node[15].content_store 	decision_ratio[15] 	0
scalar geant_cost_network.node[15].content_store 	correction_factor[15] 	0.001
scalar geant_cost_network.node[15].content_store 	xi[15] 	1
scalar geant_cost_network.node[16].core_layer 	interests[16] 	0
scalar geant_cost_network.node[16].core_layer 	data[16] 	0
scalar geant_cost_network.node[16].content_store 	p_hit[16] 	-nan
scalar geant_cost_network.node[16].content_store 	hits[16] 	0
scalar geant_cost_network.node[16].content_store 	misses[16] 	0
scalar geant_cost_network.node[16].content_store 	decision_yes[16] 	0
scalar geant_cost_network.node[16].content_store 	decision_no[16] 	0
scalar geant_cost_network.node[16].content_store 	decision_ratio[16] 	0
scalar geant_cost_network.node[16].content_store 	correction_factor[16] 	0.001
scalar geant_cost_network.node[16].content_store 	xi[16] 	1
scalar geant_cost_network.node[17].core_layer 	interests[17] 	0
scalar geant_cost_network.node[17].core_layer 	data[17] 	0
scalar geant_cost_network.node[17].content_store 	p_hit[17] 	-nan
scalar geant_cost_network.node[17].content_store 	hits[17] 	0
scalar geant_cost_network.node[17].content_store 	misses[17] 	0
scalar geant_cost_network.node[17].content_store 	decision_yes[17] 	0
scalar geant_cost_network.node[17].content_store 	decision_no[17] 	0
scalar geant_cost_network.node[17].content_store 	decision_ratio[17] 	0
scalar geant_cost_network.node[17].content_store 	correction_factor[17] 	0.001
scalar geant_cost_network.node[17].content_store 	xi[17] 	1
scalar geant_cost_network.node[18].core_layer 	interests[18] 	47112
scalar geant_cost_network.node[18].core_layer 	data[18] 	40671
scalar geant_cost_network.node[18].content_store 	p_hit[18] 	0.13671676006113
scalar geant_cost_network.node[18].content_store 	hits[18] 	6441
scalar geant_cost_network.node[18].content_store 	misses[18] 	40671
scalar geant_cost_network.node[18].content_store 	decision_yes[18] 	397
scalar geant_cost_network.node[18].content_store 	decision_no[18] 	40274
scalar geant_cost_network.node[18].content_store 	decision_ratio[18] 	0.0097612549482432
scalar geant_cost_network.node[18].content_store 	correction_factor[18] 	0.001
scalar geant_cost_network.node[18].content_store 	xi[18] 	1
scalar geant_cost_network.node[19].core_layer 	interests[19] 	0
scalar geant_cost_network.node[19].core_layer 	data[19] 	0
scalar geant_cost_network.node[19].content_store 	p_hit[19] 	-nan
scalar geant_cost_network.node[19].content_store 	hits[19] 	0
scalar geant_cost_network.node[19].content_store 	misses[19] 	0
scalar geant_cost_network.node[19].content_store 	decision_yes[19] 	0
scalar geant_cost_network.node[19].content_store 	decision_no[19] 	0
scalar geant_cost_network.node[19].content_store 	decision_ratio[19] 	0
scalar geant_cost_network.node[19].content_store 	correction_factor[19] 	0.001
scalar geant_cost_network.node[19].content_store 	xi[19] 	1
scalar geant_cost_network.node[20].core_layer 	interests[20] 	90653
scalar geant_cost_network.node[20].core_layer 	data[20] 	59880
scalar geant_cost_network.node[20].content_store 	p_hit[20] 	0.33926069738453
scalar geant_cost_network.node[20].content_store 	hits[20] 	30755
scalar geant_cost_network.node[20].content_store 	misses[20] 	59898
scalar geant_cost_network.node[20].content_store 	decision_yes[20] 	614
scalar geant_cost_network.node[20].content_store 	decision_no[20] 	59266
scalar geant_cost_network.node[20].content_store 	decision_ratio[20] 	0.010253841015364
scalar geant_cost_network.node[20].content_store 	correction_factor[20] 	0.001
scalar geant_cost_network.node[20].content_store 	xi[20] 	1
scalar geant_cost_network.node[21].core_layer 	interests[21] 	77823
scalar geant_cost_network.node[21].core_layer 	data[21] 	74974
scalar geant_cost_network.node[21].content_store 	p_hit[21] 	0.036608714647341
scalar geant_cost_network.node[21].content_store 	hits[21] 	2849
scalar geant_cost_network.node[21].content_store 	misses[21] 	74974
scalar geant_cost_network.node[21].content_store 	decision_yes[21] 	814
scalar geant_cost_network.node[21].content_store 	decision_no[21] 	74160
scalar geant_cost_network.node[21].content_store 	decision_ratio[21] 	0.010857097127004
scalar geant_cost_network.node[21].content_store 	correction_factor[21] 	0.001
scalar geant_cost_network.node[21].content_store 	xi[21] 	1
scalar geant_cost_network.node[22].core_layer 	interests[22] 	74099
scalar geant_cost_network.node[22].core_layer 	repo_load[22] 	74099
scalar geant_cost_network.node[22].core_layer 	data[22] 	0
scalar geant_cost_network.node[22].content_store 	p_hit[22] 	0
scalar geant_cost_network.node[22].content_store 	hits[22] 	0
scalar geant_cost_network.node[22].content_store 	misses[22] 	74099
scalar geant_cost_network.node[22].content_store 	decision_yes[22] 	0
scalar geant_cost_network.node[22].content_store 	decision_no[22] 	74099
scalar geant_cost_network.node[22].content_store 	decision_ratio[22] 	0
scalar geant_cost_network.node[23].core_layer 	interests[23] 	72517
scalar geant_cost_network.node[23].core_layer 	repo_load[23] 	72517
scalar geant_cost_network.node[23].core_layer 	data[23] 	0
scalar geant_cost_network.node[23].content_store 	p_hit[23] 	0
scalar geant_cost_network.node[23].content_store 	hits[23] 	0
scalar geant_cost_network.node[23].content_store 	misses[23] 	72517
scalar geant_cost_network.node[23].content_store 	decision_yes[23] 	0
scalar geant_cost_network.node[23].content_store 	decision_no[23] 	72517
scalar geant_cost_network.node[23].content_store 	decision_ratio[23] 	0
scalar geant_cost_network.node[24].core_layer 	interests[24] 	74974
scalar geant_cost_network.node[24].core_layer 	repo_load[24] 	74974
scalar geant_cost_network.node[24].core_layer 	data[24] 	0
scalar geant_cost_network.node[24].content_store 	p_hit[24] 	0
scalar geant_cost_network.node[24].content_store 	hits[24] 	0
scalar geant_cost_network.node[24].content_store 	misses[24] 	74974
scalar geant_cost_network.node[24].content_store 	decision_yes[24] 	0
scalar geant_cost_network.node[24].content_store 	decision_no[24] 	74974
scalar geant_cost_network.node[24].content_store 	decision_ratio[24] 	0
scalar geant_cost_network.client[5] 	hdistance[5] 	2.4161592872812
scalar geant_cost_network.client[5] 	downloads[5] 	89348
scalar geant_cost_network.client[5] 	avg_time[5] 	0.00753801421
scalar geant_cost_network.client[5] 	interests_sent[5] 	89375
scalar geant_cost_network.client[9] 	hdistance[9] 	2.5104129464286
scalar geant_cost_network.client[9] 	downloads[9] 	89600
scalar geant_cost_network.client[9] 	avg_time[9] 	0.005063813657
scalar geant_cost_network.client[9] 	interests_sent[9] 	89632
scalar geant_cost_network.client[10] 	hdistance[10] 	3.1415348198434
scalar geant_cost_network.client[10] 	downloads[10] 	89561
scalar geant_cost_network.client[10] 	avg_time[10] 	0.006223612039
scalar geant_cost_network.client[10] 	interests_sent[10] 	89584
scalar geant_cost_network.client[12] 	hdistance[12] 	2.6056519947889
scalar geant_cost_network.client[12] 	downloads[12] 	89809
scalar geant_cost_network.client[12] 	avg_time[12] 	0.005833720656
scalar geant_cost_network.client[12] 	interests_sent[12] 	89842
scalar geant_cost_network.client[20] 	hdistance[20] 	2.6839486427651
scalar geant_cost_network.client[20] 	downloads[20] 	90036
scalar geant_cost_network.client[20] 	avg_time[20] 	0.00540773279
scalar geant_cost_network.client[20] 	interests_sent[20] 	90054
