version 2
run General-344-20140421-20:09:17-15010
attr D prob_cache
attr F nrr
attr R lru
attr a 0.8
attr configname General
attr csize 10
attr ctlg 10^3
attr datetime 20140421-20:09:17
attr experiment General
attr inifile omnetpp.ini
attr iterationvars "$net=simple_scenario, $rep=11, $priceratiovalue=8, $a=0.8, $ctlg=10^3, $F=nrr, $ttl=1000, $D=prob_cache, $R=lru, $csize=10"
attr iterationvars2 "$net=simple_scenario, $rep=11, $priceratiovalue=8, $a=0.8, $ctlg=10^3, $F=nrr, $ttl=1000, $D=prob_cache, $R=lru, $csize=10, $repetition=0"
attr measurement "$net=simple_scenario, $rep=11, $priceratiovalue=8, $a=0.8, $ctlg=10^3, $F=nrr, $ttl=1000, $D=prob_cache, $R=lru, $csize=10"
attr net simple_scenario
attr network networks.${net=simple_scenario}_network
attr priceratiovalue 8
attr processid 15010
attr rep 11
attr repetition 0
attr replication #0
attr resultdir results
attr runnumber 344
attr seedset 11
attr ttl 1000

scalar . 	a 	0.8
scalar . 	csize 	10
scalar . 	priceratiovalue 	8
scalar . 	rep 	11
scalar . 	ttl 	1000
scalar simple_scenario_network.content_distribution 	repo-0 	3
scalar simple_scenario_network.content_distribution 	repo-1 	4
scalar simple_scenario_network.content_distribution 	client-0 	0
scalar simple_scenario_network.content_distribution 	repo-0_card 	503
scalar simple_scenario_network.content_distribution 	repo-1_card 	497
scalar simple_scenario_network.statistics 	p_hit 	0.079067828389586
scalar simple_scenario_network.statistics 	interests 	95467.4
scalar simple_scenario_network.statistics 	data 	59529.8
scalar simple_scenario_network.statistics 	hdistance 	2.4464349316593
scalar simple_scenario_network.statistics 	avg_time 	0.001998139165
scalar simple_scenario_network.statistics 	downloads 	179688
scalar simple_scenario_network.statistics 	total_cost 	73666
scalar simple_scenario_network.node[0].core_layer 	interests[0] 	179688
scalar simple_scenario_network.node[0].core_layer 	data[0] 	155703
scalar simple_scenario_network.node[0].core_layer 	repo_int[0] 	141946
scalar simple_scenario_network.node[0].content_store 	p_hit[0] 	0.13348136770402
scalar simple_scenario_network.node[0].content_store 	hits[0] 	23985
scalar simple_scenario_network.node[0].content_store 	misses[0] 	155703
scalar simple_scenario_network.node[1].core_layer 	interests[1] 	73262
scalar simple_scenario_network.node[1].core_layer 	data[1] 	67510
scalar simple_scenario_network.node[1].content_store 	p_hit[1] 	0.078512735115066
scalar simple_scenario_network.node[1].content_store 	hits[1] 	5752
scalar simple_scenario_network.node[1].content_store 	misses[1] 	67510
scalar simple_scenario_network.node[2].core_layer 	interests[2] 	82441
scalar simple_scenario_network.node[2].core_layer 	data[2] 	74436
scalar simple_scenario_network.node[2].content_store 	p_hit[2] 	0.097099744059388
scalar simple_scenario_network.node[2].content_store 	hits[2] 	8005
scalar simple_scenario_network.node[2].content_store 	misses[2] 	74436
scalar simple_scenario_network.node[3].core_layer 	interests[3] 	67510
scalar simple_scenario_network.node[3].core_layer 	repo_load[3] 	67510
scalar simple_scenario_network.node[3].core_layer 	data[3] 	0
scalar simple_scenario_network.node[3].content_store 	p_hit[3] 	0
scalar simple_scenario_network.node[3].content_store 	hits[3] 	0
scalar simple_scenario_network.node[3].content_store 	misses[3] 	67510
scalar simple_scenario_network.node[4].core_layer 	interests[4] 	74436
scalar simple_scenario_network.node[4].core_layer 	repo_load[4] 	74436
scalar simple_scenario_network.node[4].core_layer 	data[4] 	0
scalar simple_scenario_network.node[4].content_store 	p_hit[4] 	0
scalar simple_scenario_network.node[4].content_store 	hits[4] 	0
scalar simple_scenario_network.node[4].content_store 	misses[4] 	74436
scalar simple_scenario_network.client[0] 	hdistance[0] 	2.4464349316593
scalar simple_scenario_network.client[0] 	downloads[0] 	179688
scalar simple_scenario_network.client[0] 	avg_time[0] 	0.001998139165
