version 2
run General-0-20140509-10:57:14-11674
attr D costprobtailperf0.01
attr F nrr
attr R lru
attr a 0.8
attr configname General
attr csize 5
attr ctlg 100
attr datetime 20140509-10:57:14
attr experiment General
attr inifile omnetpp.ini
attr iterationvars "$net=one_cache_scenario_3_links, $rep=1, $priceratiovalue=1, $weights=0.333_0.333_0.334, $a=0.8, $ctlg=100, $F=nrr, $ttl=1000, $D=costprobtailperf0.01, $xi=0.5, $R=lru, $csize=5"
attr iterationvars2 "$net=one_cache_scenario_3_links, $rep=1, $priceratiovalue=1, $weights=0.333_0.333_0.334, $a=0.8, $ctlg=100, $F=nrr, $ttl=1000, $D=costprobtailperf0.01, $xi=0.5, $R=lru, $csize=5, $repetition=0"
attr measurement "$net=one_cache_scenario_3_links, $rep=1, $priceratiovalue=1, $weights=0.333_0.333_0.334, $a=0.8, $ctlg=100, $F=nrr, $ttl=1000, $D=costprobtailperf0.01, $xi=0.5, $R=lru, $csize=5"
attr net one_cache_scenario_3_links
attr network networks.${net=one_cache_scenario_3_links}_network
attr priceratiovalue 1
attr processid 11674
attr rep 1
attr repetition 0
attr replication #0
attr resultdir results
attr runnumber 0
attr seedset 1
attr ttl 1000
attr weights 0.333_0.333_0.334
attr xi 0.5

scalar . 	a 	0.8
scalar . 	csize 	5
scalar . 	ctlg 	100
scalar . 	priceratiovalue 	1
scalar . 	rep 	1
scalar . 	ttl 	1000
scalar . 	xi 	0.5
scalar one_cache_scenario_3_links_network.content_distribution 	repo-0 	4
scalar one_cache_scenario_3_links_network.content_distribution 	repo-1 	5
scalar one_cache_scenario_3_links_network.content_distribution 	repo-2 	6
scalar one_cache_scenario_3_links_network.content_distribution 	client-0 	0
scalar one_cache_scenario_3_links_network.content_distribution 	repo-0_card 	35
scalar one_cache_scenario_3_links_network.content_distribution 	repo-1_card 	37
scalar one_cache_scenario_3_links_network.content_distribution 	repo-2_card 	28
scalar one_cache_scenario_3_links_network.statistics 	p_hit 	0.059376101150378
scalar one_cache_scenario_3_links_network.statistics 	interests 	68921.428571429
scalar one_cache_scenario_3_links_network.statistics 	data 	43219.428571429
scalar one_cache_scenario_3_links_network.statistics 	hdistance 	1.681558967062
scalar one_cache_scenario_3_links_network.statistics 	avg_time 	0
scalar one_cache_scenario_3_links_network.statistics 	downloads 	179914
scalar one_cache_scenario_3_links_network.statistics 	total_cost 	105837
scalar one_cache_scenario_3_links_network.statistics 	total_replicas 	100
scalar one_cache_scenario_3_links_network.statistics 	interests_sent 	179914
scalar one_cache_scenario_3_links_network.node[0].core_layer 	interests[0] 	179914
scalar one_cache_scenario_3_links_network.node[0].core_layer 	data[0] 	151268
scalar one_cache_scenario_3_links_network.node[0].core_layer 	repo_int[0] 	151268
scalar one_cache_scenario_3_links_network.node[0].content_store 	p_hit[0] 	0.15922051646898
scalar one_cache_scenario_3_links_network.node[0].content_store 	hits[0] 	28646
scalar one_cache_scenario_3_links_network.node[0].content_store 	misses[0] 	151268
scalar one_cache_scenario_3_links_network.node[0].content_store 	decision_yes[0] 	128434
scalar one_cache_scenario_3_links_network.node[0].content_store 	decision_no[0] 	22834
scalar one_cache_scenario_3_links_network.node[0].content_store 	decision_ratio[0] 	0.84904936933125
scalar one_cache_scenario_3_links_network.node[0].content_store 	correction_factor[0] 	2.0569138593921e-316
scalar one_cache_scenario_3_links_network.node[0].content_store 	xi[0] 	0.5
scalar one_cache_scenario_3_links_network.node[1].core_layer 	interests[1] 	45431
scalar one_cache_scenario_3_links_network.node[1].core_layer 	data[1] 	45431
scalar one_cache_scenario_3_links_network.node[1].content_store 	p_hit[1] 	0
scalar one_cache_scenario_3_links_network.node[1].content_store 	hits[1] 	0
scalar one_cache_scenario_3_links_network.node[1].content_store 	misses[1] 	45431
scalar one_cache_scenario_3_links_network.node[1].content_store 	decision_yes[1] 	0
scalar one_cache_scenario_3_links_network.node[1].content_store 	decision_no[1] 	45431
scalar one_cache_scenario_3_links_network.node[1].content_store 	decision_ratio[1] 	0
scalar one_cache_scenario_3_links_network.node[2].core_layer 	interests[2] 	44956
scalar one_cache_scenario_3_links_network.node[2].core_layer 	data[2] 	44956
scalar one_cache_scenario_3_links_network.node[2].content_store 	p_hit[2] 	0
scalar one_cache_scenario_3_links_network.node[2].content_store 	hits[2] 	0
scalar one_cache_scenario_3_links_network.node[2].content_store 	misses[2] 	44956
scalar one_cache_scenario_3_links_network.node[2].content_store 	decision_yes[2] 	0
scalar one_cache_scenario_3_links_network.node[2].content_store 	decision_no[2] 	44956
scalar one_cache_scenario_3_links_network.node[2].content_store 	decision_ratio[2] 	0
scalar one_cache_scenario_3_links_network.node[3].core_layer 	interests[3] 	60881
scalar one_cache_scenario_3_links_network.node[3].core_layer 	data[3] 	60881
scalar one_cache_scenario_3_links_network.node[3].content_store 	p_hit[3] 	0
scalar one_cache_scenario_3_links_network.node[3].content_store 	hits[3] 	0
scalar one_cache_scenario_3_links_network.node[3].content_store 	misses[3] 	60881
scalar one_cache_scenario_3_links_network.node[3].content_store 	decision_yes[3] 	0
scalar one_cache_scenario_3_links_network.node[3].content_store 	decision_no[3] 	60881
scalar one_cache_scenario_3_links_network.node[3].content_store 	decision_ratio[3] 	0
scalar one_cache_scenario_3_links_network.node[4].core_layer 	interests[4] 	45431
scalar one_cache_scenario_3_links_network.node[4].core_layer 	repo_load[4] 	45431
scalar one_cache_scenario_3_links_network.node[4].core_layer 	data[4] 	0
scalar one_cache_scenario_3_links_network.node[4].content_store 	p_hit[4] 	0
scalar one_cache_scenario_3_links_network.node[4].content_store 	hits[4] 	0
scalar one_cache_scenario_3_links_network.node[4].content_store 	misses[4] 	45431
scalar one_cache_scenario_3_links_network.node[4].content_store 	decision_yes[4] 	0
scalar one_cache_scenario_3_links_network.node[4].content_store 	decision_no[4] 	45431
scalar one_cache_scenario_3_links_network.node[4].content_store 	decision_ratio[4] 	0
scalar one_cache_scenario_3_links_network.node[5].core_layer 	interests[5] 	44956
scalar one_cache_scenario_3_links_network.node[5].core_layer 	repo_load[5] 	44956
scalar one_cache_scenario_3_links_network.node[5].core_layer 	data[5] 	0
scalar one_cache_scenario_3_links_network.node[5].content_store 	p_hit[5] 	0
scalar one_cache_scenario_3_links_network.node[5].content_store 	hits[5] 	0
scalar one_cache_scenario_3_links_network.node[5].content_store 	misses[5] 	44956
scalar one_cache_scenario_3_links_network.node[5].content_store 	decision_yes[5] 	0
scalar one_cache_scenario_3_links_network.node[5].content_store 	decision_no[5] 	44956
scalar one_cache_scenario_3_links_network.node[5].content_store 	decision_ratio[5] 	0
scalar one_cache_scenario_3_links_network.node[6].core_layer 	interests[6] 	60881
scalar one_cache_scenario_3_links_network.node[6].core_layer 	repo_load[6] 	60881
scalar one_cache_scenario_3_links_network.node[6].core_layer 	data[6] 	0
scalar one_cache_scenario_3_links_network.node[6].content_store 	p_hit[6] 	0
scalar one_cache_scenario_3_links_network.node[6].content_store 	hits[6] 	0
scalar one_cache_scenario_3_links_network.node[6].content_store 	misses[6] 	60881
scalar one_cache_scenario_3_links_network.node[6].content_store 	decision_yes[6] 	0
scalar one_cache_scenario_3_links_network.node[6].content_store 	decision_no[6] 	60881
scalar one_cache_scenario_3_links_network.node[6].content_store 	decision_ratio[6] 	0
scalar one_cache_scenario_3_links_network.client[0] 	hdistance[0] 	1.681558967062
scalar one_cache_scenario_3_links_network.client[0] 	downloads[0] 	179914
scalar one_cache_scenario_3_links_network.client[0] 	avg_time[0] 	0
scalar one_cache_scenario_3_links_network.client[0] 	interests_sent[0] 	179914
