version 2
run General-515-20140502-13:20:30-16074
attr D fix0.005
attr F nrr
attr R lru
attr a 0.8
attr configname General
attr csize 1e3
attr ctlg 1e5
attr datetime 20140502-13:20:30
attr experiment General
attr inifile omnetpp.ini
attr iterationvars "$net=three_caches_scenario_3_links, $rep=4, $priceratiovalue=5, $weights=0.333_0.333_0.334, $a=0.8, $ctlg=1e5, $F=nrr, $ttl=1000, $D=fix0.005, $xi=1, $R=lru, $csize=1e3"
attr iterationvars2 "$net=three_caches_scenario_3_links, $rep=4, $priceratiovalue=5, $weights=0.333_0.333_0.334, $a=0.8, $ctlg=1e5, $F=nrr, $ttl=1000, $D=fix0.005, $xi=1, $R=lru, $csize=1e3, $repetition=0"
attr measurement "$net=three_caches_scenario_3_links, $rep=4, $priceratiovalue=5, $weights=0.333_0.333_0.334, $a=0.8, $ctlg=1e5, $F=nrr, $ttl=1000, $D=fix0.005, $xi=1, $R=lru, $csize=1e3"
attr net three_caches_scenario_3_links
attr network networks.${net=three_caches_scenario_3_links}_network
attr priceratiovalue 5
attr processid 16074
attr rep 4
attr repetition 0
attr replication #0
attr resultdir results
attr runnumber 515
attr seedset 4
attr ttl 1000
attr weights 0.333_0.333_0.334
attr xi 1

scalar . 	a 	0.8
scalar . 	csize 	1e3
scalar . 	ctlg 	1e5
scalar . 	priceratiovalue 	5
scalar . 	rep 	4
scalar . 	ttl 	1000
scalar . 	xi 	1
scalar three_caches_scenario_3_links_network.content_distribution 	repo-0 	4
scalar three_caches_scenario_3_links_network.content_distribution 	repo-1 	5
scalar three_caches_scenario_3_links_network.content_distribution 	repo-2 	6
scalar three_caches_scenario_3_links_network.content_distribution 	client-0 	0
scalar three_caches_scenario_3_links_network.content_distribution 	repo-0_card 	33584
scalar three_caches_scenario_3_links_network.content_distribution 	repo-1_card 	33055
scalar three_caches_scenario_3_links_network.content_distribution 	repo-2_card 	33361
scalar three_caches_scenario_3_links_network.statistics 	p_hit 	0.097342500092965
scalar three_caches_scenario_3_links_network.statistics 	interests 	65308.428571429
scalar three_caches_scenario_3_links_network.statistics 	data 	39628.857142857
scalar three_caches_scenario_3_links_network.statistics 	hdistance 	2.0293674237999
scalar three_caches_scenario_3_links_network.statistics 	avg_time 	0
scalar three_caches_scenario_3_links_network.statistics 	downloads 	179757
scalar three_caches_scenario_3_links_network.statistics 	total_cost 	263735
scalar three_caches_scenario_3_links_network.statistics 	total_replicas 	100000
scalar three_caches_scenario_3_links_network.statistics 	interests_sent 	179757
scalar three_caches_scenario_3_links_network.node[0].core_layer 	interests[0] 	179757
scalar three_caches_scenario_3_links_network.node[0].core_layer 	data[0] 	142146
scalar three_caches_scenario_3_links_network.node[0].core_layer 	repo_int[0] 	135256
scalar three_caches_scenario_3_links_network.node[0].content_store 	p_hit[0] 	0.20923246382617
scalar three_caches_scenario_3_links_network.node[0].content_store 	hits[0] 	37611
scalar three_caches_scenario_3_links_network.node[0].content_store 	misses[0] 	142146
scalar three_caches_scenario_3_links_network.node[0].content_store 	decision_yes[0] 	749
scalar three_caches_scenario_3_links_network.node[0].content_store 	decision_no[0] 	141397
scalar three_caches_scenario_3_links_network.node[1].core_layer 	interests[1] 	47865
scalar three_caches_scenario_3_links_network.node[1].core_layer 	data[1] 	47865
scalar three_caches_scenario_3_links_network.node[1].content_store 	p_hit[1] 	0
scalar three_caches_scenario_3_links_network.node[1].content_store 	hits[1] 	0
scalar three_caches_scenario_3_links_network.node[1].content_store 	misses[1] 	47865
scalar three_caches_scenario_3_links_network.node[1].content_store 	decision_yes[1] 	0
scalar three_caches_scenario_3_links_network.node[1].content_store 	decision_no[1] 	47865
scalar three_caches_scenario_3_links_network.node[2].core_layer 	interests[2] 	46515
scalar three_caches_scenario_3_links_network.node[2].core_layer 	data[2] 	43305
scalar three_caches_scenario_3_links_network.node[2].content_store 	p_hit[2] 	0.069009996775234
scalar three_caches_scenario_3_links_network.node[2].content_store 	hits[2] 	3210
scalar three_caches_scenario_3_links_network.node[2].content_store 	misses[2] 	43305
scalar three_caches_scenario_3_links_network.node[2].content_store 	decision_yes[2] 	208
scalar three_caches_scenario_3_links_network.node[2].content_store 	decision_no[2] 	43097
scalar three_caches_scenario_3_links_network.node[3].core_layer 	interests[3] 	47766
scalar three_caches_scenario_3_links_network.node[3].core_layer 	data[3] 	44086
scalar three_caches_scenario_3_links_network.node[3].content_store 	p_hit[3] 	0.077042247623833
scalar three_caches_scenario_3_links_network.node[3].content_store 	hits[3] 	3680
scalar three_caches_scenario_3_links_network.node[3].content_store 	misses[3] 	44086
scalar three_caches_scenario_3_links_network.node[3].content_store 	decision_yes[3] 	202
scalar three_caches_scenario_3_links_network.node[3].content_store 	decision_no[3] 	43884
scalar three_caches_scenario_3_links_network.node[4].core_layer 	interests[4] 	47865
scalar three_caches_scenario_3_links_network.node[4].core_layer 	repo_load[4] 	47865
scalar three_caches_scenario_3_links_network.node[4].core_layer 	data[4] 	0
scalar three_caches_scenario_3_links_network.node[4].content_store 	p_hit[4] 	0
scalar three_caches_scenario_3_links_network.node[4].content_store 	hits[4] 	0
scalar three_caches_scenario_3_links_network.node[4].content_store 	misses[4] 	47865
scalar three_caches_scenario_3_links_network.node[4].content_store 	decision_yes[4] 	0
scalar three_caches_scenario_3_links_network.node[4].content_store 	decision_no[4] 	47865
scalar three_caches_scenario_3_links_network.node[5].core_layer 	interests[5] 	43305
scalar three_caches_scenario_3_links_network.node[5].core_layer 	repo_load[5] 	43305
scalar three_caches_scenario_3_links_network.node[5].core_layer 	data[5] 	0
scalar three_caches_scenario_3_links_network.node[5].content_store 	p_hit[5] 	0
scalar three_caches_scenario_3_links_network.node[5].content_store 	hits[5] 	0
scalar three_caches_scenario_3_links_network.node[5].content_store 	misses[5] 	43305
scalar three_caches_scenario_3_links_network.node[5].content_store 	decision_yes[5] 	0
scalar three_caches_scenario_3_links_network.node[5].content_store 	decision_no[5] 	43305
scalar three_caches_scenario_3_links_network.node[6].core_layer 	interests[6] 	44086
scalar three_caches_scenario_3_links_network.node[6].core_layer 	repo_load[6] 	44086
scalar three_caches_scenario_3_links_network.node[6].core_layer 	data[6] 	0
scalar three_caches_scenario_3_links_network.node[6].content_store 	p_hit[6] 	0
scalar three_caches_scenario_3_links_network.node[6].content_store 	hits[6] 	0
scalar three_caches_scenario_3_links_network.node[6].content_store 	misses[6] 	44086
scalar three_caches_scenario_3_links_network.node[6].content_store 	decision_yes[6] 	0
scalar three_caches_scenario_3_links_network.node[6].content_store 	decision_no[6] 	44086
scalar three_caches_scenario_3_links_network.client[0] 	hdistance[0] 	2.0293674237999
scalar three_caches_scenario_3_links_network.client[0] 	downloads[0] 	179757
scalar three_caches_scenario_3_links_network.client[0] 	avg_time[0] 	0
scalar three_caches_scenario_3_links_network.client[0] 	interests_sent[0] 	179757
