version 2
run General-5-20140519-17:40:32-21136
attr D costprobtailperf
attr F nrr
attr R lru
attr a 1
attr configname General
attr csize 1e3
attr ctlg 1e6
attr datetime 20140519-17:40:32
attr experiment General
attr inifile omnetpp.ini
attr iterationvars "$net=one_cache_scenario_3_links, $rep=2, $priceratiovalue=10, $weights=0.333_0.333_0.334, $a=1, $ctlg=1e6, $F=nrr, $ttl=1000, $D=costprobtailperf, $xi=1, $R=lru, $csize=1e3, $pricebits=0"
attr iterationvars2 "$net=one_cache_scenario_3_links, $rep=2, $priceratiovalue=10, $weights=0.333_0.333_0.334, $a=1, $ctlg=1e6, $F=nrr, $ttl=1000, $D=costprobtailperf, $xi=1, $R=lru, $csize=1e3, $pricebits=0, $repetition=0"
attr measurement "$net=one_cache_scenario_3_links, $rep=2, $priceratiovalue=10, $weights=0.333_0.333_0.334, $a=1, $ctlg=1e6, $F=nrr, $ttl=1000, $D=costprobtailperf, $xi=1, $R=lru, $csize=1e3, $pricebits=0"
attr net one_cache_scenario_3_links
attr network networks.${net=one_cache_scenario_3_links}_network
attr pricebits 0
attr priceratiovalue 10
attr processid 21136
attr rep 2
attr repetition 0
attr replication #0
attr resultdir results
attr runnumber 5
attr seedset 2
attr ttl 1000
attr weights 0.333_0.333_0.334
attr xi 1

scalar . 	a 	1
scalar . 	csize 	1e3
scalar . 	ctlg 	1e6
scalar . 	pricebits 	0
scalar . 	priceratiovalue 	10
scalar . 	rep 	2
scalar . 	ttl 	1000
scalar . 	xi 	1
scalar one_cache_scenario_3_links_network.content_distribution 	repo-0 	4
scalar one_cache_scenario_3_links_network.content_distribution 	repo-1 	5
scalar one_cache_scenario_3_links_network.content_distribution 	repo-2 	6
scalar one_cache_scenario_3_links_network.content_distribution 	client-0 	0
scalar one_cache_scenario_3_links_network.content_distribution 	repo-0_card 	332875
scalar one_cache_scenario_3_links_network.content_distribution 	repo-1_card 	332992
scalar one_cache_scenario_3_links_network.content_distribution 	repo-2_card 	334133
scalar one_cache_scenario_3_links_network.statistics 	p_hit 	0.23620509288758
scalar one_cache_scenario_3_links_network.statistics 	interests 	523974.42857143
scalar one_cache_scenario_3_links_network.statistics 	data 	266806
scalar one_cache_scenario_3_links_network.statistics 	hdistance 	1.0374757176925
scalar one_cache_scenario_3_links_network.statistics 	avg_time 	0
scalar one_cache_scenario_3_links_network.statistics 	downloads 	1800179
scalar one_cache_scenario_3_links_network.statistics 	total_cost 	2937169
scalar one_cache_scenario_3_links_network.statistics 	total_replicas 	1000000
scalar one_cache_scenario_3_links_network.statistics 	interests_sent 	1800179
scalar one_cache_scenario_3_links_network.node[0].core_layer 	interests[0] 	1800179
scalar one_cache_scenario_3_links_network.node[0].core_layer 	data[0] 	933821
scalar one_cache_scenario_3_links_network.node[0].core_layer 	repo_int[0] 	933821
scalar one_cache_scenario_3_links_network.node[0].content_store 	p_hit[0] 	0.48126214115374
scalar one_cache_scenario_3_links_network.node[0].content_store 	hits[0] 	866358
scalar one_cache_scenario_3_links_network.node[0].content_store 	misses[0] 	933821
scalar one_cache_scenario_3_links_network.node[0].content_store 	decision_yes[0] 	2069
scalar one_cache_scenario_3_links_network.node[0].content_store 	decision_no[0] 	931752
scalar one_cache_scenario_3_links_network.node[0].content_store 	decision_ratio[0] 	0.0022156280486303
scalar one_cache_scenario_3_links_network.node[0].content_store 	correction_factor[0] 	2.1769757638567e-316
scalar one_cache_scenario_3_links_network.node[0].content_store 	xi[0] 	1
scalar one_cache_scenario_3_links_network.node[1].core_layer 	interests[1] 	371401
scalar one_cache_scenario_3_links_network.node[1].core_layer 	data[1] 	371401
scalar one_cache_scenario_3_links_network.node[1].content_store 	p_hit[1] 	0
scalar one_cache_scenario_3_links_network.node[1].content_store 	hits[1] 	0
scalar one_cache_scenario_3_links_network.node[1].content_store 	misses[1] 	371401
scalar one_cache_scenario_3_links_network.node[1].content_store 	decision_yes[1] 	0
scalar one_cache_scenario_3_links_network.node[1].content_store 	decision_no[1] 	371401
scalar one_cache_scenario_3_links_network.node[1].content_store 	decision_ratio[1] 	0
scalar one_cache_scenario_3_links_network.node[2].core_layer 	interests[2] 	298559
scalar one_cache_scenario_3_links_network.node[2].core_layer 	data[2] 	298559
scalar one_cache_scenario_3_links_network.node[2].content_store 	p_hit[2] 	0
scalar one_cache_scenario_3_links_network.node[2].content_store 	hits[2] 	0
scalar one_cache_scenario_3_links_network.node[2].content_store 	misses[2] 	298559
scalar one_cache_scenario_3_links_network.node[2].content_store 	decision_yes[2] 	0
scalar one_cache_scenario_3_links_network.node[2].content_store 	decision_no[2] 	298559
scalar one_cache_scenario_3_links_network.node[2].content_store 	decision_ratio[2] 	0
scalar one_cache_scenario_3_links_network.node[3].core_layer 	interests[3] 	263861
scalar one_cache_scenario_3_links_network.node[3].core_layer 	data[3] 	263861
scalar one_cache_scenario_3_links_network.node[3].content_store 	p_hit[3] 	0
scalar one_cache_scenario_3_links_network.node[3].content_store 	hits[3] 	0
scalar one_cache_scenario_3_links_network.node[3].content_store 	misses[3] 	263861
scalar one_cache_scenario_3_links_network.node[3].content_store 	decision_yes[3] 	0
scalar one_cache_scenario_3_links_network.node[3].content_store 	decision_no[3] 	263861
scalar one_cache_scenario_3_links_network.node[3].content_store 	decision_ratio[3] 	0
scalar one_cache_scenario_3_links_network.node[4].core_layer 	interests[4] 	371401
scalar one_cache_scenario_3_links_network.node[4].core_layer 	repo_load[4] 	371401
scalar one_cache_scenario_3_links_network.node[4].core_layer 	data[4] 	0
scalar one_cache_scenario_3_links_network.node[4].content_store 	p_hit[4] 	0
scalar one_cache_scenario_3_links_network.node[4].content_store 	hits[4] 	0
scalar one_cache_scenario_3_links_network.node[4].content_store 	misses[4] 	371401
scalar one_cache_scenario_3_links_network.node[4].content_store 	decision_yes[4] 	0
scalar one_cache_scenario_3_links_network.node[4].content_store 	decision_no[4] 	371401
scalar one_cache_scenario_3_links_network.node[4].content_store 	decision_ratio[4] 	0
scalar one_cache_scenario_3_links_network.node[5].core_layer 	interests[5] 	298559
scalar one_cache_scenario_3_links_network.node[5].core_layer 	repo_load[5] 	298559
scalar one_cache_scenario_3_links_network.node[5].core_layer 	data[5] 	0
scalar one_cache_scenario_3_links_network.node[5].content_store 	p_hit[5] 	0
scalar one_cache_scenario_3_links_network.node[5].content_store 	hits[5] 	0
scalar one_cache_scenario_3_links_network.node[5].content_store 	misses[5] 	298559
scalar one_cache_scenario_3_links_network.node[5].content_store 	decision_yes[5] 	0
scalar one_cache_scenario_3_links_network.node[5].content_store 	decision_no[5] 	298559
scalar one_cache_scenario_3_links_network.node[5].content_store 	decision_ratio[5] 	0
scalar one_cache_scenario_3_links_network.node[6].core_layer 	interests[6] 	263861
scalar one_cache_scenario_3_links_network.node[6].core_layer 	repo_load[6] 	263861
scalar one_cache_scenario_3_links_network.node[6].core_layer 	data[6] 	0
scalar one_cache_scenario_3_links_network.node[6].content_store 	p_hit[6] 	0
scalar one_cache_scenario_3_links_network.node[6].content_store 	hits[6] 	0
scalar one_cache_scenario_3_links_network.node[6].content_store 	misses[6] 	263861
scalar one_cache_scenario_3_links_network.node[6].content_store 	decision_yes[6] 	0
scalar one_cache_scenario_3_links_network.node[6].content_store 	decision_no[6] 	263861
scalar one_cache_scenario_3_links_network.node[6].content_store 	decision_ratio[6] 	0
scalar one_cache_scenario_3_links_network.client[0] 	hdistance[0] 	1.0374757176925
scalar one_cache_scenario_3_links_network.client[0] 	downloads[0] 	1800179
scalar one_cache_scenario_3_links_network.client[0] 	avg_time[0] 	0
scalar one_cache_scenario_3_links_network.client[0] 	interests_sent[0] 	1800179
