version 2
run General-8130-20140425-12:23:45-10567
attr D fix0.0001
attr F nrr
attr R lru
attr a 0.8
attr configname General
attr csize 30
attr ctlg 10^3
attr datetime 20140425-12:23:45
attr experiment General
attr inifile omnetpp.ini
attr iterationvars "$net=one_cache_scenario, $rep=20, $priceratiovalue=4, $a=0.8, $ctlg=10^3, $F=nrr, $ttl=1000, $D=fix0.0001, $R=lru, $csize=30"
attr iterationvars2 "$net=one_cache_scenario, $rep=20, $priceratiovalue=4, $a=0.8, $ctlg=10^3, $F=nrr, $ttl=1000, $D=fix0.0001, $R=lru, $csize=30, $repetition=0"
attr measurement "$net=one_cache_scenario, $rep=20, $priceratiovalue=4, $a=0.8, $ctlg=10^3, $F=nrr, $ttl=1000, $D=fix0.0001, $R=lru, $csize=30"
attr net one_cache_scenario
attr network networks.${net=one_cache_scenario}_network
attr priceratiovalue 4
attr processid 10567
attr rep 20
attr repetition 0
attr replication #0
attr resultdir results
attr runnumber 8130
attr seedset 20
attr ttl 1000

scalar . 	a 	0.8
scalar . 	csize 	30
scalar . 	priceratiovalue 	4
scalar . 	rep 	20
scalar . 	ttl 	1000
scalar one_cache_scenario_network.content_distribution 	repo-0 	3
scalar one_cache_scenario_network.content_distribution 	repo-1 	4
scalar one_cache_scenario_network.content_distribution 	client-0 	0
scalar one_cache_scenario_network.content_distribution 	repo-0_card 	474
scalar one_cache_scenario_network.content_distribution 	repo-1_card 	526
scalar one_cache_scenario_network.statistics 	p_hit 	0.09822577186964
scalar one_cache_scenario_network.statistics 	interests 	89548.8
scalar one_cache_scenario_network.statistics 	data 	53835.2
scalar one_cache_scenario_network.statistics 	hdistance 	1.5074145423592
scalar one_cache_scenario_network.statistics 	avg_time 	0
scalar one_cache_scenario_network.statistics 	downloads 	178568
scalar one_cache_scenario_network.statistics 	total_cost 	71849
scalar one_cache_scenario_network.statistics 	interests_sent 	178568
scalar one_cache_scenario_network.node[0].core_layer 	interests[0] 	178568
scalar one_cache_scenario_network.node[0].core_layer 	data[0] 	134588
scalar one_cache_scenario_network.node[0].core_layer 	repo_int[0] 	134588
scalar one_cache_scenario_network.node[0].content_store 	p_hit[0] 	0.24629272882039
scalar one_cache_scenario_network.node[0].content_store 	hits[0] 	43980
scalar one_cache_scenario_network.node[0].content_store 	misses[0] 	134588
scalar one_cache_scenario_network.node[0].content_store 	decision_yes[0] 	15
scalar one_cache_scenario_network.node[0].content_store 	decision_no[0] 	134573
scalar one_cache_scenario_network.node[1].core_layer 	interests[1] 	59701
scalar one_cache_scenario_network.node[1].core_layer 	data[1] 	59701
scalar one_cache_scenario_network.node[1].content_store 	p_hit[1] 	0
scalar one_cache_scenario_network.node[1].content_store 	hits[1] 	0
scalar one_cache_scenario_network.node[1].content_store 	misses[1] 	59701
scalar one_cache_scenario_network.node[1].content_store 	decision_yes[1] 	0
scalar one_cache_scenario_network.node[1].content_store 	decision_no[1] 	59701
scalar one_cache_scenario_network.node[2].core_layer 	interests[2] 	74887
scalar one_cache_scenario_network.node[2].core_layer 	data[2] 	74887
scalar one_cache_scenario_network.node[2].content_store 	p_hit[2] 	0
scalar one_cache_scenario_network.node[2].content_store 	hits[2] 	0
scalar one_cache_scenario_network.node[2].content_store 	misses[2] 	74887
scalar one_cache_scenario_network.node[2].content_store 	decision_yes[2] 	0
scalar one_cache_scenario_network.node[2].content_store 	decision_no[2] 	74887
scalar one_cache_scenario_network.node[3].core_layer 	interests[3] 	59701
scalar one_cache_scenario_network.node[3].core_layer 	repo_load[3] 	59701
scalar one_cache_scenario_network.node[3].core_layer 	data[3] 	0
scalar one_cache_scenario_network.node[3].content_store 	p_hit[3] 	0
scalar one_cache_scenario_network.node[3].content_store 	hits[3] 	0
scalar one_cache_scenario_network.node[3].content_store 	misses[3] 	59701
scalar one_cache_scenario_network.node[3].content_store 	decision_yes[3] 	0
scalar one_cache_scenario_network.node[3].content_store 	decision_no[3] 	59701
scalar one_cache_scenario_network.node[4].core_layer 	interests[4] 	74887
scalar one_cache_scenario_network.node[4].core_layer 	repo_load[4] 	74887
scalar one_cache_scenario_network.node[4].core_layer 	data[4] 	0
scalar one_cache_scenario_network.node[4].content_store 	p_hit[4] 	0
scalar one_cache_scenario_network.node[4].content_store 	hits[4] 	0
scalar one_cache_scenario_network.node[4].content_store 	misses[4] 	74887
scalar one_cache_scenario_network.node[4].content_store 	decision_yes[4] 	0
scalar one_cache_scenario_network.node[4].content_store 	decision_no[4] 	74887
scalar one_cache_scenario_network.client[0] 	hdistance[0] 	1.5074145423592
scalar one_cache_scenario_network.client[0] 	downloads[0] 	178568
scalar one_cache_scenario_network.client[0] 	avg_time[0] 	0
scalar one_cache_scenario_network.client[0] 	interests_sent[0] 	178568
