version 2
run General-2778-20140502-06:26:29-11744
attr D costprob0.05
attr F nrr
attr R lru
attr a 0.8
attr configname General
attr csize 1e3
attr ctlg 1e5
attr datetime 20140502-06:26:29
attr experiment General
attr inifile omnetpp.ini
attr iterationvars "$net=three_caches_scenario_3_links, $rep=5, $priceratiovalue=10, $weights=0.2_0.4_0.4, $a=0.8, $ctlg=1e5, $F=nrr, $ttl=1000, $D=costprob0.05, $xi=1, $R=lru, $csize=1e3"
attr iterationvars2 "$net=three_caches_scenario_3_links, $rep=5, $priceratiovalue=10, $weights=0.2_0.4_0.4, $a=0.8, $ctlg=1e5, $F=nrr, $ttl=1000, $D=costprob0.05, $xi=1, $R=lru, $csize=1e3, $repetition=0"
attr measurement "$net=three_caches_scenario_3_links, $rep=5, $priceratiovalue=10, $weights=0.2_0.4_0.4, $a=0.8, $ctlg=1e5, $F=nrr, $ttl=1000, $D=costprob0.05, $xi=1, $R=lru, $csize=1e3"
attr net three_caches_scenario_3_links
attr network networks.${net=three_caches_scenario_3_links}_network
attr priceratiovalue 10
attr processid 11744
attr rep 5
attr repetition 0
attr replication #0
attr resultdir results
attr runnumber 2778
attr seedset 5
attr ttl 1000
attr weights 0.2_0.4_0.4
attr xi 1

scalar . 	a 	0.8
scalar . 	csize 	1e3
scalar . 	ctlg 	1e5
scalar . 	priceratiovalue 	10
scalar . 	rep 	5
scalar . 	ttl 	1000
scalar . 	xi 	1
scalar three_caches_scenario_3_links_network.content_distribution 	repo-0 	4
scalar three_caches_scenario_3_links_network.content_distribution 	repo-1 	5
scalar three_caches_scenario_3_links_network.content_distribution 	repo-2 	6
scalar three_caches_scenario_3_links_network.content_distribution 	client-0 	0
scalar three_caches_scenario_3_links_network.content_distribution 	repo-0_card 	19937
scalar three_caches_scenario_3_links_network.content_distribution 	repo-1_card 	40032
scalar three_caches_scenario_3_links_network.content_distribution 	repo-2_card 	40031
scalar three_caches_scenario_3_links_network.statistics 	p_hit 	0.060027746692318
scalar three_caches_scenario_3_links_network.statistics 	interests 	71359.857142857
scalar three_caches_scenario_3_links_network.statistics 	data 	45543.714285714
scalar three_caches_scenario_3_links_network.statistics 	hdistance 	2.3599298334929
scalar three_caches_scenario_3_links_network.statistics 	avg_time 	0
scalar three_caches_scenario_3_links_network.statistics 	downloads 	180713
scalar three_caches_scenario_3_links_network.statistics 	total_cost 	581352
scalar three_caches_scenario_3_links_network.statistics 	total_replicas 	100000
scalar three_caches_scenario_3_links_network.statistics 	interests_sent 	180713
scalar three_caches_scenario_3_links_network.node[0].core_layer 	interests[0] 	180713
scalar three_caches_scenario_3_links_network.node[0].core_layer 	data[0] 	168078
scalar three_caches_scenario_3_links_network.node[0].core_layer 	repo_int[0] 	150728
scalar three_caches_scenario_3_links_network.node[0].content_store 	p_hit[0] 	0.069917493484143
scalar three_caches_scenario_3_links_network.node[0].content_store 	hits[0] 	12635
scalar three_caches_scenario_3_links_network.node[0].content_store 	misses[0] 	168078
scalar three_caches_scenario_3_links_network.node[0].content_store 	decision_yes[0] 	6570
scalar three_caches_scenario_3_links_network.node[0].content_store 	decision_no[0] 	161508
scalar three_caches_scenario_3_links_network.node[1].core_layer 	interests[1] 	43064
scalar three_caches_scenario_3_links_network.node[1].core_layer 	data[1] 	43064
scalar three_caches_scenario_3_links_network.node[1].content_store 	p_hit[1] 	0
scalar three_caches_scenario_3_links_network.node[1].content_store 	hits[1] 	0
scalar three_caches_scenario_3_links_network.node[1].content_store 	misses[1] 	43064
scalar three_caches_scenario_3_links_network.node[1].content_store 	decision_yes[1] 	0
scalar three_caches_scenario_3_links_network.node[1].content_store 	decision_no[1] 	43064
scalar three_caches_scenario_3_links_network.node[2].core_layer 	interests[2] 	63672
scalar three_caches_scenario_3_links_network.node[2].core_layer 	data[2] 	55032
scalar three_caches_scenario_3_links_network.node[2].content_store 	p_hit[2] 	0.13569543912552
scalar three_caches_scenario_3_links_network.node[2].content_store 	hits[2] 	8640
scalar three_caches_scenario_3_links_network.node[2].content_store 	misses[2] 	55032
scalar three_caches_scenario_3_links_network.node[2].content_store 	decision_yes[2] 	625
scalar three_caches_scenario_3_links_network.node[2].content_store 	decision_no[2] 	54407
scalar three_caches_scenario_3_links_network.node[3].core_layer 	interests[3] 	61342
scalar three_caches_scenario_3_links_network.node[3].core_layer 	data[3] 	52632
scalar three_caches_scenario_3_links_network.node[3].content_store 	p_hit[3] 	0.14199080564703
scalar three_caches_scenario_3_links_network.node[3].content_store 	hits[3] 	8710
scalar three_caches_scenario_3_links_network.node[3].content_store 	misses[3] 	52632
scalar three_caches_scenario_3_links_network.node[3].content_store 	decision_yes[3] 	6070
scalar three_caches_scenario_3_links_network.node[3].content_store 	decision_no[3] 	46562
scalar three_caches_scenario_3_links_network.node[4].core_layer 	interests[4] 	43064
scalar three_caches_scenario_3_links_network.node[4].core_layer 	repo_load[4] 	43064
scalar three_caches_scenario_3_links_network.node[4].core_layer 	data[4] 	0
scalar three_caches_scenario_3_links_network.node[4].content_store 	p_hit[4] 	0
scalar three_caches_scenario_3_links_network.node[4].content_store 	hits[4] 	0
scalar three_caches_scenario_3_links_network.node[4].content_store 	misses[4] 	43064
scalar three_caches_scenario_3_links_network.node[4].content_store 	decision_yes[4] 	0
scalar three_caches_scenario_3_links_network.node[4].content_store 	decision_no[4] 	43064
scalar three_caches_scenario_3_links_network.node[5].core_layer 	interests[5] 	55032
scalar three_caches_scenario_3_links_network.node[5].core_layer 	repo_load[5] 	55032
scalar three_caches_scenario_3_links_network.node[5].core_layer 	data[5] 	0
scalar three_caches_scenario_3_links_network.node[5].content_store 	p_hit[5] 	0
scalar three_caches_scenario_3_links_network.node[5].content_store 	hits[5] 	0
scalar three_caches_scenario_3_links_network.node[5].content_store 	misses[5] 	55032
scalar three_caches_scenario_3_links_network.node[5].content_store 	decision_yes[5] 	0
scalar three_caches_scenario_3_links_network.node[5].content_store 	decision_no[5] 	55032
scalar three_caches_scenario_3_links_network.node[6].core_layer 	interests[6] 	52632
scalar three_caches_scenario_3_links_network.node[6].core_layer 	repo_load[6] 	52632
scalar three_caches_scenario_3_links_network.node[6].core_layer 	data[6] 	0
scalar three_caches_scenario_3_links_network.node[6].content_store 	p_hit[6] 	0
scalar three_caches_scenario_3_links_network.node[6].content_store 	hits[6] 	0
scalar three_caches_scenario_3_links_network.node[6].content_store 	misses[6] 	52632
scalar three_caches_scenario_3_links_network.node[6].content_store 	decision_yes[6] 	0
scalar three_caches_scenario_3_links_network.node[6].content_store 	decision_no[6] 	52632
scalar three_caches_scenario_3_links_network.client[0] 	hdistance[0] 	2.3599298334929
scalar three_caches_scenario_3_links_network.client[0] 	downloads[0] 	180713
scalar three_caches_scenario_3_links_network.client[0] 	avg_time[0] 	0
scalar three_caches_scenario_3_links_network.client[0] 	interests_sent[0] 	180713
