version 2
run General-434-20140502-12:55:39-15902
attr D costprob0.5
attr F nrr
attr R lru
attr a 0.8
attr configname General
attr csize 1e3
attr ctlg 1e5
attr datetime 20140502-12:55:39
attr experiment General
attr inifile omnetpp.ini
attr iterationvars "$net=three_caches_scenario_3_links, $rep=4, $priceratiovalue=1, $weights=0.333_0.333_0.334, $a=0.8, $ctlg=1e5, $F=nrr, $ttl=1000, $D=costprob0.5, $xi=1, $R=lru, $csize=1e3"
attr iterationvars2 "$net=three_caches_scenario_3_links, $rep=4, $priceratiovalue=1, $weights=0.333_0.333_0.334, $a=0.8, $ctlg=1e5, $F=nrr, $ttl=1000, $D=costprob0.5, $xi=1, $R=lru, $csize=1e3, $repetition=0"
attr measurement "$net=three_caches_scenario_3_links, $rep=4, $priceratiovalue=1, $weights=0.333_0.333_0.334, $a=0.8, $ctlg=1e5, $F=nrr, $ttl=1000, $D=costprob0.5, $xi=1, $R=lru, $csize=1e3"
attr net three_caches_scenario_3_links
attr network networks.${net=three_caches_scenario_3_links}_network
attr priceratiovalue 1
attr processid 15902
attr rep 4
attr repetition 0
attr replication #0
attr resultdir results
attr runnumber 434
attr seedset 4
attr ttl 1000
attr weights 0.333_0.333_0.334
attr xi 1

scalar . 	a 	0.8
scalar . 	csize 	1e3
scalar . 	ctlg 	1e5
scalar . 	priceratiovalue 	1
scalar . 	rep 	4
scalar . 	ttl 	1000
scalar . 	xi 	1
scalar three_caches_scenario_3_links_network.content_distribution 	repo-0 	4
scalar three_caches_scenario_3_links_network.content_distribution 	repo-1 	5
scalar three_caches_scenario_3_links_network.content_distribution 	repo-2 	6
scalar three_caches_scenario_3_links_network.content_distribution 	client-0 	0
scalar three_caches_scenario_3_links_network.content_distribution 	repo-0_card 	33584
scalar three_caches_scenario_3_links_network.content_distribution 	repo-1_card 	33055
scalar three_caches_scenario_3_links_network.content_distribution 	repo-2_card 	33361
scalar three_caches_scenario_3_links_network.statistics 	p_hit 	0.043720066445314
scalar three_caches_scenario_3_links_network.statistics 	interests 	72153.857142857
scalar three_caches_scenario_3_links_network.statistics 	data 	46468.142857143
scalar three_caches_scenario_3_links_network.statistics 	hdistance 	2.3301668520578
scalar three_caches_scenario_3_links_network.statistics 	avg_time 	0
scalar three_caches_scenario_3_links_network.statistics 	downloads 	179800
scalar three_caches_scenario_3_links_network.statistics 	total_cost 	93687
scalar three_caches_scenario_3_links_network.statistics 	total_replicas 	100000
scalar three_caches_scenario_3_links_network.statistics 	interests_sent 	179800
scalar three_caches_scenario_3_links_network.node[0].core_layer 	interests[0] 	179800
scalar three_caches_scenario_3_links_network.node[0].core_layer 	data[0] 	167559
scalar three_caches_scenario_3_links_network.node[0].core_layer 	repo_int[0] 	157718
scalar three_caches_scenario_3_links_network.node[0].content_store 	p_hit[0] 	0.068081201334816
scalar three_caches_scenario_3_links_network.node[0].content_store 	hits[0] 	12241
scalar three_caches_scenario_3_links_network.node[0].content_store 	misses[0] 	167559
scalar three_caches_scenario_3_links_network.node[0].content_store 	decision_yes[0] 	70280
scalar three_caches_scenario_3_links_network.node[0].content_store 	decision_no[0] 	97279
scalar three_caches_scenario_3_links_network.node[1].core_layer 	interests[1] 	64031
scalar three_caches_scenario_3_links_network.node[1].core_layer 	data[1] 	64031
scalar three_caches_scenario_3_links_network.node[1].content_store 	p_hit[1] 	0
scalar three_caches_scenario_3_links_network.node[1].content_store 	hits[1] 	0
scalar three_caches_scenario_3_links_network.node[1].content_store 	misses[1] 	64031
scalar three_caches_scenario_3_links_network.node[1].content_store 	decision_yes[1] 	0
scalar three_caches_scenario_3_links_network.node[1].content_store 	decision_no[1] 	64031
scalar three_caches_scenario_3_links_network.node[2].core_layer 	interests[2] 	51002
scalar three_caches_scenario_3_links_network.node[2].core_layer 	data[2] 	46205
scalar three_caches_scenario_3_links_network.node[2].content_store 	p_hit[2] 	0.094055135092741
scalar three_caches_scenario_3_links_network.node[2].content_store 	hits[2] 	4797
scalar three_caches_scenario_3_links_network.node[2].content_store 	misses[2] 	46205
scalar three_caches_scenario_3_links_network.node[2].content_store 	decision_yes[2] 	34768
scalar three_caches_scenario_3_links_network.node[2].content_store 	decision_no[2] 	11437
scalar three_caches_scenario_3_links_network.node[3].core_layer 	interests[3] 	52526
scalar three_caches_scenario_3_links_network.node[3].core_layer 	data[3] 	47482
scalar three_caches_scenario_3_links_network.node[3].content_store 	p_hit[3] 	0.096028633438678
scalar three_caches_scenario_3_links_network.node[3].content_store 	hits[3] 	5044
scalar three_caches_scenario_3_links_network.node[3].content_store 	misses[3] 	47482
scalar three_caches_scenario_3_links_network.node[3].content_store 	decision_yes[3] 	35536
scalar three_caches_scenario_3_links_network.node[3].content_store 	decision_no[3] 	11946
scalar three_caches_scenario_3_links_network.node[4].core_layer 	interests[4] 	64031
scalar three_caches_scenario_3_links_network.node[4].core_layer 	repo_load[4] 	64031
scalar three_caches_scenario_3_links_network.node[4].core_layer 	data[4] 	0
scalar three_caches_scenario_3_links_network.node[4].content_store 	p_hit[4] 	0
scalar three_caches_scenario_3_links_network.node[4].content_store 	hits[4] 	0
scalar three_caches_scenario_3_links_network.node[4].content_store 	misses[4] 	64031
scalar three_caches_scenario_3_links_network.node[4].content_store 	decision_yes[4] 	0
scalar three_caches_scenario_3_links_network.node[4].content_store 	decision_no[4] 	64031
scalar three_caches_scenario_3_links_network.node[5].core_layer 	interests[5] 	46205
scalar three_caches_scenario_3_links_network.node[5].core_layer 	repo_load[5] 	46205
scalar three_caches_scenario_3_links_network.node[5].core_layer 	data[5] 	0
scalar three_caches_scenario_3_links_network.node[5].content_store 	p_hit[5] 	0
scalar three_caches_scenario_3_links_network.node[5].content_store 	hits[5] 	0
scalar three_caches_scenario_3_links_network.node[5].content_store 	misses[5] 	46205
scalar three_caches_scenario_3_links_network.node[5].content_store 	decision_yes[5] 	0
scalar three_caches_scenario_3_links_network.node[5].content_store 	decision_no[5] 	46205
scalar three_caches_scenario_3_links_network.node[6].core_layer 	interests[6] 	47482
scalar three_caches_scenario_3_links_network.node[6].core_layer 	repo_load[6] 	47482
scalar three_caches_scenario_3_links_network.node[6].core_layer 	data[6] 	0
scalar three_caches_scenario_3_links_network.node[6].content_store 	p_hit[6] 	0
scalar three_caches_scenario_3_links_network.node[6].content_store 	hits[6] 	0
scalar three_caches_scenario_3_links_network.node[6].content_store 	misses[6] 	47482
scalar three_caches_scenario_3_links_network.node[6].content_store 	decision_yes[6] 	0
scalar three_caches_scenario_3_links_network.node[6].content_store 	decision_no[6] 	47482
scalar three_caches_scenario_3_links_network.client[0] 	hdistance[0] 	2.3301668520578
scalar three_caches_scenario_3_links_network.client[0] 	downloads[0] 	179800
scalar three_caches_scenario_3_links_network.client[0] 	avg_time[0] 	0
scalar three_caches_scenario_3_links_network.client[0] 	interests_sent[0] 	179800
