version 2
run General-3-20140630-11:41:03-25626
>>>>>>> e1705686414f379fcb9d06a9e50f5d7fe13c2c97
attr D costprobprodcorr0.01
attr F nrr
attr R lru
attr a 1
attr configname General
attr csize 1e3
attr ctlg 1e5
attr datetime 20140630-11:41:03
>>>>>>> e1705686414f379fcb9d06a9e50f5d7fe13c2c97
attr experiment General
attr inifile omnetpp.ini
attr iterationvars "$net=geant_cost, $rep=11, $priceratiovalue=10, $weights=0.333_0.333_0.334, $lambda=100, $a=1, $ctlg=1e5, $F=nrr, $ttl=1000, $D=costprobprodcorr0.01, $xi=1, $R=lru, $csize=1e3, $pricebits=0, $window=60, $variance=0.05, $mytime=1800"
attr iterationvars2 "$net=geant_cost, $rep=11, $priceratiovalue=10, $weights=0.333_0.333_0.334, $lambda=100, $a=1, $ctlg=1e5, $F=nrr, $ttl=1000, $D=costprobprodcorr0.01, $xi=1, $R=lru, $csize=1e3, $pricebits=0, $window=60, $variance=0.05, $mytime=1800, $repetition=0"
attr lambda 100
attr measurement "$net=geant_cost, $rep=11, $priceratiovalue=10, $weights=0.333_0.333_0.334, $lambda=100, $a=1, $ctlg=1e5, $F=nrr, $ttl=1000, $D=costprobprodcorr0.01, $xi=1, $R=lru, $csize=1e3, $pricebits=0, $window=60, $variance=0.05, $mytime=1800"
attr mytime 1800
attr net geant_cost
attr network "networks.${net=geant_cost, abilene_cost}_network"
attr pricebits 0
attr priceratiovalue 10
attr processid 25626
>>>>>>> e1705686414f379fcb9d06a9e50f5d7fe13c2c97
attr rep 11
attr repetition 0
attr replication #0
attr resultdir results
attr runnumber 3
attr seedset 11
attr ttl 1000
attr variance 0.05
attr weights 0.333_0.333_0.334
attr window 60
attr xi 1

scalar . 	a 	1
scalar . 	csize 	1e3
scalar . 	ctlg 	1e5
scalar . 	lambda 	100
scalar . 	mytime 	1800
scalar . 	pricebits 	0
scalar . 	priceratiovalue 	10
scalar . 	rep 	11
scalar . 	ttl 	1000
scalar . 	variance 	0.05
scalar . 	window 	60
scalar . 	xi 	1
scalar geant_cost_network.content_distribution 	repo-0 	22
scalar geant_cost_network.content_distribution 	repo-1 	23
scalar geant_cost_network.content_distribution 	repo-2 	24
scalar geant_cost_network.content_distribution 	client-0 	20
scalar geant_cost_network.content_distribution 	client-1 	10
scalar geant_cost_network.content_distribution 	client-2 	12
scalar geant_cost_network.content_distribution 	client-3 	9
scalar geant_cost_network.content_distribution 	client-4 	5
scalar geant_cost_network.content_distribution 	repo-0_card 	33093
scalar geant_cost_network.content_distribution 	repo-1_card 	33554
scalar geant_cost_network.content_distribution 	repo-2_card 	33353
scalar geant_cost_network.statistics 	repo_popularity[0] 	0.39172976570124
scalar geant_cost_network.statistics 	repo_popularity[1] 	0.31007949205523
scalar geant_cost_network.statistics 	repo_popularity[2] 	0.29819074224352
scalar geant_cost_network.statistics 	stabilization_time 	36060
scalar geant_cost_network.node[7].face$o[4].channel 	price[7] 	0
scalar geant_cost_network.node[7].face$o[4].channel 	represented_price[7] 	0
scalar geant_cost_network.node[8].face$o[3].channel 	price[8] 	0
scalar geant_cost_network.node[8].face$o[3].channel 	represented_price[8] 	0
scalar geant_cost_network.node[21].face$o[5].channel 	price[21] 	0
scalar geant_cost_network.node[21].face$o[5].channel 	represented_price[21] 	0
scalar geant_cost_network.node[22].face$o[1].channel 	price[22] 	0
scalar geant_cost_network.node[22].face$o[1].channel 	represented_price[22] 	0
scalar geant_cost_network.node[23].face$o[1].channel 	price[23] 	1
scalar geant_cost_network.node[23].face$o[1].channel 	represented_price[23] 	1
scalar geant_cost_network.node[24].face$o[1].channel 	price[24] 	10
scalar geant_cost_network.node[24].face$o[1].channel 	represented_price[24] 	10
scalar geant_cost_network.statistics 	p_hit 	0.074393805833497
scalar geant_cost_network.statistics 	interests 	149699.56
scalar geant_cost_network.statistics 	data 	113756.68
scalar geant_cost_network.statistics 	hdistance 	3.8784574279491
scalar geant_cost_network.statistics 	avg_time 	0.007002659623
scalar geant_cost_network.statistics 	downloads 	892726
scalar geant_cost_network.statistics 	total_cost 	1449868
scalar geant_cost_network.statistics 	total_replicas 	100000
scalar geant_cost_network.statistics 	inner_hit 	0.31425655800324
scalar geant_cost_network.statistics 	interests_sent 	898573
scalar geant_cost_network.node[0].core_layer 	interests[0] 	0
scalar geant_cost_network.node[0].core_layer 	data[0] 	0
scalar geant_cost_network.node[0].core_layer 	repo_int[0] 	612181
>>>>>>> e1705686414f379fcb9d06a9e50f5d7fe13c2c97
scalar geant_cost_network.node[0].content_store 	p_hit[0] 	-nan
scalar geant_cost_network.node[0].content_store 	hits[0] 	0
scalar geant_cost_network.node[0].content_store 	misses[0] 	0
scalar geant_cost_network.node[0].content_store 	decision_yes[0] 	0
scalar geant_cost_network.node[0].content_store 	decision_no[0] 	0
scalar geant_cost_network.node[0].content_store 	decision_ratio[0] 	0
scalar geant_cost_network.node[0].content_store 	correction_factor[0] 	0.0027225701061802
scalar geant_cost_network.node[0].content_store 	xi[0] 	1
scalar geant_cost_network.node[1].core_layer 	interests[1] 	0
scalar geant_cost_network.node[1].core_layer 	data[1] 	0
scalar geant_cost_network.node[1].content_store 	p_hit[1] 	-nan
scalar geant_cost_network.node[1].content_store 	hits[1] 	0
scalar geant_cost_network.node[1].content_store 	misses[1] 	0
scalar geant_cost_network.node[1].content_store 	decision_yes[1] 	0
scalar geant_cost_network.node[1].content_store 	decision_no[1] 	0
scalar geant_cost_network.node[1].content_store 	decision_ratio[1] 	0
scalar geant_cost_network.node[1].content_store 	correction_factor[1] 	0.0027225701061802
scalar geant_cost_network.node[1].content_store 	xi[1] 	1
scalar geant_cost_network.node[2].core_layer 	interests[2] 	0
scalar geant_cost_network.node[2].core_layer 	data[2] 	0
scalar geant_cost_network.node[2].content_store 	p_hit[2] 	-nan
scalar geant_cost_network.node[2].content_store 	hits[2] 	0
scalar geant_cost_network.node[2].content_store 	misses[2] 	0
scalar geant_cost_network.node[2].content_store 	decision_yes[2] 	0
scalar geant_cost_network.node[2].content_store 	decision_no[2] 	0
scalar geant_cost_network.node[2].content_store 	decision_ratio[2] 	0
scalar geant_cost_network.node[2].content_store 	correction_factor[2] 	0.0027225701061802
scalar geant_cost_network.node[2].content_store 	xi[2] 	1
scalar geant_cost_network.node[3].core_layer 	interests[3] 	242632
scalar geant_cost_network.node[3].core_layer 	data[3] 	228257
scalar geant_cost_network.node[3].content_store 	p_hit[3] 	0.05905239209997
scalar geant_cost_network.node[3].content_store 	hits[3] 	14328
scalar geant_cost_network.node[3].content_store 	misses[3] 	228304
scalar geant_cost_network.node[3].content_store 	decision_yes[3] 	2191
scalar geant_cost_network.node[3].content_store 	decision_no[3] 	226066
scalar geant_cost_network.node[3].content_store 	decision_ratio[3] 	0.0095988293896792
scalar geant_cost_network.node[3].content_store 	correction_factor[3] 	0.0027225701061802
scalar geant_cost_network.node[3].content_store 	xi[3] 	1
scalar geant_cost_network.node[4].core_layer 	interests[4] 	320262
scalar geant_cost_network.node[4].core_layer 	data[4] 	282236
scalar geant_cost_network.node[4].content_store 	p_hit[4] 	0.11700108036545
scalar geant_cost_network.node[4].content_store 	hits[4] 	37471
scalar geant_cost_network.node[4].content_store 	misses[4] 	282791
scalar geant_cost_network.node[4].content_store 	decision_yes[4] 	2228
scalar geant_cost_network.node[4].content_store 	decision_no[4] 	280008
scalar geant_cost_network.node[4].content_store 	decision_ratio[4] 	0.0078941028075795
scalar geant_cost_network.node[4].content_store 	correction_factor[4] 	0.0027225701061802
scalar geant_cost_network.node[4].content_store 	xi[4] 	1
scalar geant_cost_network.node[5].core_layer 	interests[5] 	202631
scalar geant_cost_network.node[5].core_layer 	data[5] 	182235
scalar geant_cost_network.node[5].content_store 	p_hit[5] 	0.091925717190361
scalar geant_cost_network.node[5].content_store 	hits[5] 	18627
scalar geant_cost_network.node[5].content_store 	misses[5] 	184004
scalar geant_cost_network.node[5].content_store 	decision_yes[5] 	756
scalar geant_cost_network.node[5].content_store 	decision_no[5] 	181479
scalar geant_cost_network.node[5].content_store 	decision_ratio[5] 	0.0041484895876204
scalar geant_cost_network.node[5].content_store 	correction_factor[5] 	0.0027225701061802
scalar geant_cost_network.node[5].content_store 	xi[5] 	1
scalar geant_cost_network.node[6].core_layer 	interests[6] 	125224
scalar geant_cost_network.node[6].core_layer 	data[6] 	104459
scalar geant_cost_network.node[6].content_store 	p_hit[6] 	0.16582284546093
scalar geant_cost_network.node[6].content_store 	hits[6] 	20765
scalar geant_cost_network.node[6].content_store 	misses[6] 	104459
scalar geant_cost_network.node[6].content_store 	decision_yes[6] 	64
scalar geant_cost_network.node[6].content_store 	decision_no[6] 	104395
scalar geant_cost_network.node[6].content_store 	decision_ratio[6] 	0.00061268057323926
scalar geant_cost_network.node[6].content_store 	correction_factor[6] 	0.0027225701061802
scalar geant_cost_network.node[6].content_store 	xi[6] 	1
scalar geant_cost_network.node[7].core_layer 	interests[7] 	450264
scalar geant_cost_network.node[7].core_layer 	data[7] 	423347
scalar geant_cost_network.node[7].content_store 	p_hit[7] 	0.059771600660946
scalar geant_cost_network.node[7].content_store 	hits[7] 	26913
scalar geant_cost_network.node[7].content_store 	misses[7] 	423351
scalar geant_cost_network.node[7].content_store 	decision_yes[7] 	139
scalar geant_cost_network.node[7].content_store 	decision_no[7] 	423208
scalar geant_cost_network.node[7].content_store 	decision_ratio[7] 	0.00032833585687391
scalar geant_cost_network.node[7].content_store 	correction_factor[7] 	0.0027225701061802
scalar geant_cost_network.node[7].content_store 	xi[7] 	1
scalar geant_cost_network.node[8].core_layer 	interests[8] 	320270
scalar geant_cost_network.node[8].core_layer 	data[8] 	300209
scalar geant_cost_network.node[8].content_store 	p_hit[8] 	0.062637774377869
scalar geant_cost_network.node[8].content_store 	hits[8] 	20061
scalar geant_cost_network.node[8].content_store 	misses[8] 	300209
scalar geant_cost_network.node[8].content_store 	decision_yes[8] 	401
scalar geant_cost_network.node[8].content_store 	decision_no[8] 	299808
scalar geant_cost_network.node[8].content_store 	decision_ratio[8] 	0.0013357361038477
scalar geant_cost_network.node[8].content_store 	correction_factor[8] 	0.0027225701061802
scalar geant_cost_network.node[8].content_store 	xi[8] 	1
scalar geant_cost_network.node[9].core_layer 	interests[9] 	418313
scalar geant_cost_network.node[9].core_layer 	data[9] 	379295
scalar geant_cost_network.node[9].content_store 	p_hit[9] 	0.088993170185961
scalar geant_cost_network.node[9].content_store 	hits[9] 	37227
scalar geant_cost_network.node[9].content_store 	misses[9] 	381086
scalar geant_cost_network.node[9].content_store 	decision_yes[9] 	1661
scalar geant_cost_network.node[9].content_store 	decision_no[9] 	377634
scalar geant_cost_network.node[9].content_store 	decision_ratio[9] 	0.0043791771576214
scalar geant_cost_network.node[9].content_store 	correction_factor[9] 	0.0027225701061802
scalar geant_cost_network.node[9].content_store 	xi[9] 	1
scalar geant_cost_network.node[10].core_layer 	interests[10] 	205616
scalar geant_cost_network.node[10].core_layer 	data[10] 	171729
scalar geant_cost_network.node[10].content_store 	p_hit[10] 	0.16043498560423
scalar geant_cost_network.node[10].content_store 	hits[10] 	32988
scalar geant_cost_network.node[10].content_store 	misses[10] 	172628
scalar geant_cost_network.node[10].content_store 	decision_yes[10] 	773
scalar geant_cost_network.node[10].content_store 	decision_no[10] 	170956
scalar geant_cost_network.node[10].content_store 	decision_ratio[10] 	0.0045012781766621
>>>>>>> e1705686414f379fcb9d06a9e50f5d7fe13c2c97
scalar geant_cost_network.node[10].content_store 	correction_factor[10] 	0.0027225701061802
scalar geant_cost_network.node[10].content_store 	xi[10] 	1
scalar geant_cost_network.node[11].core_layer 	interests[11] 	0
scalar geant_cost_network.node[11].core_layer 	data[11] 	0
scalar geant_cost_network.node[11].content_store 	p_hit[11] 	-nan
scalar geant_cost_network.node[11].content_store 	hits[11] 	0
scalar geant_cost_network.node[11].content_store 	misses[11] 	0
scalar geant_cost_network.node[11].content_store 	decision_yes[11] 	0
scalar geant_cost_network.node[11].content_store 	decision_no[11] 	0
scalar geant_cost_network.node[11].content_store 	decision_ratio[11] 	0
scalar geant_cost_network.node[11].content_store 	correction_factor[11] 	0.0027225701061802
scalar geant_cost_network.node[11].content_store 	xi[11] 	1
scalar geant_cost_network.node[12].core_layer 	interests[12] 	299044
scalar geant_cost_network.node[12].core_layer 	data[12] 	277500
scalar geant_cost_network.node[12].content_store 	p_hit[12] 	0.067979962814837
scalar geant_cost_network.node[12].content_store 	hits[12] 	20329
scalar geant_cost_network.node[12].content_store 	misses[12] 	278715
scalar geant_cost_network.node[12].content_store 	decision_yes[12] 	2180
scalar geant_cost_network.node[12].content_store 	decision_no[12] 	275320
scalar geant_cost_network.node[12].content_store 	decision_ratio[12] 	0.0078558558558559
scalar geant_cost_network.node[12].content_store 	correction_factor[12] 	0.0027225701061802
scalar geant_cost_network.node[12].content_store 	xi[12] 	1
scalar geant_cost_network.node[13].core_layer 	interests[13] 	6688
scalar geant_cost_network.node[13].core_layer 	data[13] 	6688
scalar geant_cost_network.node[13].content_store 	p_hit[13] 	0
scalar geant_cost_network.node[13].content_store 	hits[13] 	0
scalar geant_cost_network.node[13].content_store 	misses[13] 	6688
scalar geant_cost_network.node[13].content_store 	decision_yes[13] 	0
scalar geant_cost_network.node[13].content_store 	decision_no[13] 	6688
scalar geant_cost_network.node[13].content_store 	decision_ratio[13] 	0
scalar geant_cost_network.node[13].content_store 	correction_factor[13] 	0.0027225701061802
scalar geant_cost_network.node[13].content_store 	xi[13] 	1
scalar geant_cost_network.node[14].core_layer 	interests[14] 	54661
scalar geant_cost_network.node[14].core_layer 	data[14] 	43550
scalar geant_cost_network.node[14].content_store 	p_hit[14] 	0.20327107078173
scalar geant_cost_network.node[14].content_store 	hits[14] 	11111
scalar geant_cost_network.node[14].content_store 	misses[14] 	43550
scalar geant_cost_network.node[14].content_store 	decision_yes[14] 	673
scalar geant_cost_network.node[14].content_store 	decision_no[14] 	42877
scalar geant_cost_network.node[14].content_store 	decision_ratio[14] 	0.015453501722158
>>>>>>> e1705686414f379fcb9d06a9e50f5d7fe13c2c97
scalar geant_cost_network.node[14].content_store 	correction_factor[14] 	0.0027225701061802
scalar geant_cost_network.node[14].content_store 	xi[14] 	1
scalar geant_cost_network.node[15].core_layer 	interests[15] 	0
scalar geant_cost_network.node[15].core_layer 	data[15] 	0
scalar geant_cost_network.node[15].content_store 	p_hit[15] 	-nan
scalar geant_cost_network.node[15].content_store 	hits[15] 	0
scalar geant_cost_network.node[15].content_store 	misses[15] 	0
scalar geant_cost_network.node[15].content_store 	decision_yes[15] 	0
scalar geant_cost_network.node[15].content_store 	decision_no[15] 	0
scalar geant_cost_network.node[15].content_store 	decision_ratio[15] 	0
scalar geant_cost_network.node[15].content_store 	correction_factor[15] 	0.0027225701061802
scalar geant_cost_network.node[15].content_store 	xi[15] 	1
scalar geant_cost_network.node[16].core_layer 	interests[16] 	0
scalar geant_cost_network.node[16].core_layer 	data[16] 	0
scalar geant_cost_network.node[16].content_store 	p_hit[16] 	-nan
scalar geant_cost_network.node[16].content_store 	hits[16] 	0
scalar geant_cost_network.node[16].content_store 	misses[16] 	0
scalar geant_cost_network.node[16].content_store 	decision_yes[16] 	0
scalar geant_cost_network.node[16].content_store 	decision_no[16] 	0
scalar geant_cost_network.node[16].content_store 	decision_ratio[16] 	0
scalar geant_cost_network.node[16].content_store 	correction_factor[16] 	0.0027225701061802
scalar geant_cost_network.node[16].content_store 	xi[16] 	1
scalar geant_cost_network.node[17].core_layer 	interests[17] 	0
scalar geant_cost_network.node[17].core_layer 	data[17] 	0
scalar geant_cost_network.node[17].content_store 	p_hit[17] 	-nan
scalar geant_cost_network.node[17].content_store 	hits[17] 	0
scalar geant_cost_network.node[17].content_store 	misses[17] 	0
scalar geant_cost_network.node[17].content_store 	decision_yes[17] 	0
scalar geant_cost_network.node[17].content_store 	decision_no[17] 	0
scalar geant_cost_network.node[17].content_store 	decision_ratio[17] 	0
scalar geant_cost_network.node[17].content_store 	correction_factor[17] 	0.0027225701061802
scalar geant_cost_network.node[17].content_store 	xi[17] 	1
scalar geant_cost_network.node[18].core_layer 	interests[18] 	150921
scalar geant_cost_network.node[18].core_layer 	data[18] 	145656
scalar geant_cost_network.node[18].content_store 	p_hit[18] 	0.03487917519762
scalar geant_cost_network.node[18].content_store 	hits[18] 	5264
scalar geant_cost_network.node[18].content_store 	misses[18] 	145657
scalar geant_cost_network.node[18].content_store 	decision_yes[18] 	69
scalar geant_cost_network.node[18].content_store 	decision_no[18] 	145587
scalar geant_cost_network.node[18].content_store 	decision_ratio[18] 	0.00047371889932444
>>>>>>> e1705686414f379fcb9d06a9e50f5d7fe13c2c97
scalar geant_cost_network.node[18].content_store 	correction_factor[18] 	0.0027225701061802
scalar geant_cost_network.node[18].content_store 	xi[18] 	1
scalar geant_cost_network.node[19].core_layer 	interests[19] 	0
scalar geant_cost_network.node[19].core_layer 	data[19] 	0
scalar geant_cost_network.node[19].content_store 	p_hit[19] 	-nan
scalar geant_cost_network.node[19].content_store 	hits[19] 	0
scalar geant_cost_network.node[19].content_store 	misses[19] 	0
scalar geant_cost_network.node[19].content_store 	decision_yes[19] 	0
scalar geant_cost_network.node[19].content_store 	decision_no[19] 	0
scalar geant_cost_network.node[19].content_store 	decision_ratio[19] 	0
scalar geant_cost_network.node[19].content_store 	correction_factor[19] 	0.0027225701061802
scalar geant_cost_network.node[19].content_store 	xi[19] 	1
scalar geant_cost_network.node[20].core_layer 	interests[20] 	190604
scalar geant_cost_network.node[20].core_layer 	data[20] 	167159
scalar geant_cost_network.node[20].content_store 	p_hit[20] 	0.11412667100376
scalar geant_cost_network.node[20].content_store 	hits[20] 	21753
scalar geant_cost_network.node[20].content_store 	misses[20] 	168851
scalar geant_cost_network.node[20].content_store 	decision_yes[20] 	861
scalar geant_cost_network.node[20].content_store 	decision_no[20] 	166298
scalar geant_cost_network.node[20].content_store 	decision_ratio[20] 	0.0051507845823438
scalar geant_cost_network.node[20].content_store 	correction_factor[20] 	0.0027225701061802
scalar geant_cost_network.node[20].content_store 	xi[20] 	1
scalar geant_cost_network.node[21].core_layer 	interests[21] 	143178
scalar geant_cost_network.node[21].core_layer 	data[21] 	131597
scalar geant_cost_network.node[21].content_store 	p_hit[21] 	0.080885331545349
scalar geant_cost_network.node[21].content_store 	hits[21] 	11581
scalar geant_cost_network.node[21].content_store 	misses[21] 	131597
scalar geant_cost_network.node[21].content_store 	decision_yes[21] 	3547
scalar geant_cost_network.node[21].content_store 	decision_no[21] 	128050
scalar geant_cost_network.node[21].content_store 	decision_ratio[21] 	0.026953501979528
>>>>>>> e1705686414f379fcb9d06a9e50f5d7fe13c2c97
scalar geant_cost_network.node[21].content_store 	correction_factor[21] 	0.0027225701061802
scalar geant_cost_network.node[21].content_store 	xi[21] 	1
scalar geant_cost_network.node[22].core_layer 	interests[22] 	346686
scalar geant_cost_network.node[22].core_layer 	repo_load[22] 	346686
scalar geant_cost_network.node[22].core_layer 	data[22] 	0
scalar geant_cost_network.node[22].content_store 	p_hit[22] 	0
scalar geant_cost_network.node[22].content_store 	hits[22] 	0
scalar geant_cost_network.node[22].content_store 	misses[22] 	346686
scalar geant_cost_network.node[22].content_store 	decision_yes[22] 	0
scalar geant_cost_network.node[22].content_store 	decision_no[22] 	346686
scalar geant_cost_network.node[22].content_store 	decision_ratio[22] 	0
scalar geant_cost_network.node[23].core_layer 	interests[23] 	133898
scalar geant_cost_network.node[23].core_layer 	repo_load[23] 	133898
scalar geant_cost_network.node[23].core_layer 	data[23] 	0
scalar geant_cost_network.node[23].content_store 	p_hit[23] 	0
scalar geant_cost_network.node[23].content_store 	hits[23] 	0
scalar geant_cost_network.node[23].content_store 	misses[23] 	133898
scalar geant_cost_network.node[23].content_store 	decision_yes[23] 	0
scalar geant_cost_network.node[23].content_store 	decision_no[23] 	133898
scalar geant_cost_network.node[23].content_store 	decision_ratio[23] 	0
scalar geant_cost_network.node[24].core_layer 	interests[24] 	131597
scalar geant_cost_network.node[24].core_layer 	repo_load[24] 	131597
scalar geant_cost_network.node[24].core_layer 	data[24] 	0
scalar geant_cost_network.node[24].content_store 	p_hit[24] 	0
scalar geant_cost_network.node[24].content_store 	hits[24] 	0
scalar geant_cost_network.node[24].content_store 	misses[24] 	131597
scalar geant_cost_network.node[24].content_store 	decision_yes[24] 	0
scalar geant_cost_network.node[24].content_store 	decision_no[24] 	131597
scalar geant_cost_network.node[24].content_store 	decision_ratio[24] 	0
scalar geant_cost_network.client[5] 	hdistance[5] 	3.5725300037734
scalar geant_cost_network.client[5] 	downloads[5] 	177561
scalar geant_cost_network.client[5] 	avg_time[5] 	0.00961362593
scalar geant_cost_network.client[5] 	interests_sent[5] 	179303
scalar geant_cost_network.client[9] 	hdistance[9] 	3.471674601578
scalar geant_cost_network.client[9] 	downloads[9] 	178956
scalar geant_cost_network.client[9] 	avg_time[9] 	0.004737127958
scalar geant_cost_network.client[9] 	interests_sent[9] 	179522
scalar geant_cost_network.client[10] 	hdistance[10] 	4.3822177599287
scalar geant_cost_network.client[10] 	downloads[10] 	179280
scalar geant_cost_network.client[10] 	avg_time[10] 	0.006583696643
scalar geant_cost_network.client[10] 	interests_sent[10] 	180179
scalar geant_cost_network.client[12] 	hdistance[12] 	3.8706007264599
scalar geant_cost_network.client[12] 	downloads[12] 	178950
scalar geant_cost_network.client[12] 	avg_time[12] 	0.00603569122
scalar geant_cost_network.client[12] 	interests_sent[12] 	179898
scalar geant_cost_network.client[20] 	hdistance[20] 	4.0952640480057
scalar geant_cost_network.client[20] 	downloads[20] 	177979
scalar geant_cost_network.client[20] 	avg_time[20] 	0.008043156364
>>>>>>> e1705686414f379fcb9d06a9e50f5d7fe13c2c97
scalar geant_cost_network.client[20] 	interests_sent[20] 	179671
