version 2
run General-19-20140626-17:24:41-10795
attr D costprobprodcorr0.01
attr F nrr
attr R lru
attr a 1
attr configname General
attr csize 1e3
attr ctlg 1e5
attr datetime 20140626-17:24:41
attr experiment General
attr inifile omnetpp.ini
attr iterationvars "$net=geant_cost, $rep=6, $priceratiovalue=10, $weights=0.333_0.333_0.334, $lambda=100, $a=1, $ctlg=1e5, $F=nrr, $ttl=1000, $D=costprobprodcorr0.01, $xi=1, $R=lru, $csize=1e3, $pricebits=0, $mytime=1800"
attr iterationvars2 "$net=geant_cost, $rep=6, $priceratiovalue=10, $weights=0.333_0.333_0.334, $lambda=100, $a=1, $ctlg=1e5, $F=nrr, $ttl=1000, $D=costprobprodcorr0.01, $xi=1, $R=lru, $csize=1e3, $pricebits=0, $mytime=1800, $repetition=0"
attr lambda 100
attr measurement "$net=geant_cost, $rep=6, $priceratiovalue=10, $weights=0.333_0.333_0.334, $lambda=100, $a=1, $ctlg=1e5, $F=nrr, $ttl=1000, $D=costprobprodcorr0.01, $xi=1, $R=lru, $csize=1e3, $pricebits=0, $mytime=1800"
attr mytime 1800
attr net geant_cost
attr network "networks.${net=geant_cost, abilene_cost}_network"
attr pricebits 0
attr priceratiovalue 10
attr processid 10795
attr rep 6
attr repetition 0
attr replication #0
attr resultdir results
attr runnumber 19
attr seedset 6
attr ttl 1000
attr weights 0.333_0.333_0.334
attr xi 1

scalar . 	a 	1
scalar . 	csize 	1e3
scalar . 	ctlg 	1e5
scalar . 	lambda 	100
scalar . 	mytime 	1800
scalar . 	pricebits 	0
scalar . 	priceratiovalue 	10
scalar . 	rep 	6
scalar . 	ttl 	1000
scalar . 	xi 	1
scalar geant_cost_network.content_distribution 	repo-0 	22
scalar geant_cost_network.content_distribution 	repo-1 	23
scalar geant_cost_network.content_distribution 	repo-2 	24
scalar geant_cost_network.content_distribution 	client-0 	20
scalar geant_cost_network.content_distribution 	client-1 	10
scalar geant_cost_network.content_distribution 	client-2 	12
scalar geant_cost_network.content_distribution 	client-3 	9
scalar geant_cost_network.content_distribution 	client-4 	5
scalar geant_cost_network.content_distribution 	repo-0_card 	33436
scalar geant_cost_network.content_distribution 	repo-1_card 	33143
scalar geant_cost_network.content_distribution 	repo-2_card 	33421
scalar geant_cost_network.statistics 	repo_popularity[0] 	0.39107817255936
scalar geant_cost_network.statistics 	repo_popularity[1] 	0.30968687902184
scalar geant_cost_network.statistics 	repo_popularity[2] 	0.2992349484188
scalar geant_cost_network.statistics 	stabilization_time 	36060
scalar geant_cost_network.node[7].face$o[4].channel 	price[7] 	0
scalar geant_cost_network.node[7].face$o[4].channel 	represented_price[7] 	0
scalar geant_cost_network.node[8].face$o[3].channel 	price[8] 	0
scalar geant_cost_network.node[8].face$o[3].channel 	represented_price[8] 	0
scalar geant_cost_network.node[21].face$o[5].channel 	price[21] 	0
scalar geant_cost_network.node[21].face$o[5].channel 	represented_price[21] 	0
scalar geant_cost_network.node[22].face$o[1].channel 	price[22] 	0
scalar geant_cost_network.node[22].face$o[1].channel 	represented_price[22] 	0
scalar geant_cost_network.node[23].face$o[1].channel 	price[23] 	1
scalar geant_cost_network.node[23].face$o[1].channel 	represented_price[23] 	1
scalar geant_cost_network.node[24].face$o[1].channel 	price[24] 	10
scalar geant_cost_network.node[24].face$o[1].channel 	represented_price[24] 	10
scalar geant_cost_network.statistics 	p_hit 	0.075588504243837
scalar geant_cost_network.statistics 	interests 	148945.4
scalar geant_cost_network.statistics 	data 	112891.64
scalar geant_cost_network.statistics 	hdistance 	3.8413813555435
scalar geant_cost_network.statistics 	avg_time 	0.006934790373
scalar geant_cost_network.statistics 	downloads 	895511
scalar geant_cost_network.statistics 	total_cost 	1438978
scalar geant_cost_network.statistics 	total_replicas 	100000
scalar geant_cost_network.statistics 	inner_hit 	0.31632107254964
scalar geant_cost_network.statistics 	interests_sent 	901354
scalar geant_cost_network.node[0].core_layer 	interests[0] 	0
scalar geant_cost_network.node[0].core_layer 	data[0] 	0
scalar geant_cost_network.node[0].core_layer 	repo_int[0] 	612242
scalar geant_cost_network.node[0].content_store 	p_hit[0] 	-nan
scalar geant_cost_network.node[0].content_store 	hits[0] 	0
scalar geant_cost_network.node[0].content_store 	misses[0] 	0
scalar geant_cost_network.node[0].content_store 	decision_yes[0] 	0
scalar geant_cost_network.node[0].content_store 	decision_no[0] 	0
scalar geant_cost_network.node[0].content_store 	decision_ratio[0] 	0
scalar geant_cost_network.node[0].content_store 	correction_factor[0] 	0.0027225701061802
scalar geant_cost_network.node[0].content_store 	xi[0] 	1
scalar geant_cost_network.node[1].core_layer 	interests[1] 	0
scalar geant_cost_network.node[1].core_layer 	data[1] 	0
scalar geant_cost_network.node[1].content_store 	p_hit[1] 	-nan
scalar geant_cost_network.node[1].content_store 	hits[1] 	0
scalar geant_cost_network.node[1].content_store 	misses[1] 	0
scalar geant_cost_network.node[1].content_store 	decision_yes[1] 	0
scalar geant_cost_network.node[1].content_store 	decision_no[1] 	0
scalar geant_cost_network.node[1].content_store 	decision_ratio[1] 	0
scalar geant_cost_network.node[1].content_store 	correction_factor[1] 	0.0027225701061802
scalar geant_cost_network.node[1].content_store 	xi[1] 	1
scalar geant_cost_network.node[2].core_layer 	interests[2] 	0
scalar geant_cost_network.node[2].core_layer 	data[2] 	0
scalar geant_cost_network.node[2].content_store 	p_hit[2] 	-nan
scalar geant_cost_network.node[2].content_store 	hits[2] 	0
scalar geant_cost_network.node[2].content_store 	misses[2] 	0
scalar geant_cost_network.node[2].content_store 	decision_yes[2] 	0
scalar geant_cost_network.node[2].content_store 	decision_no[2] 	0
scalar geant_cost_network.node[2].content_store 	decision_ratio[2] 	0
scalar geant_cost_network.node[2].content_store 	correction_factor[2] 	0.0027225701061802
scalar geant_cost_network.node[2].content_store 	xi[2] 	1
scalar geant_cost_network.node[3].core_layer 	interests[3] 	246786
scalar geant_cost_network.node[3].core_layer 	data[3] 	202242
scalar geant_cost_network.node[3].content_store 	p_hit[3] 	0.18049646252219
scalar geant_cost_network.node[3].content_store 	hits[3] 	44544
scalar geant_cost_network.node[3].content_store 	misses[3] 	202242
scalar geant_cost_network.node[3].content_store 	decision_yes[3] 	2121
scalar geant_cost_network.node[3].content_store 	decision_no[3] 	200121
scalar geant_cost_network.node[3].content_store 	decision_ratio[3] 	0.010487435844187
scalar geant_cost_network.node[3].content_store 	correction_factor[3] 	0.0027225701061802
scalar geant_cost_network.node[3].content_store 	xi[3] 	1
scalar geant_cost_network.node[4].core_layer 	interests[4] 	300021
scalar geant_cost_network.node[4].core_layer 	data[4] 	292405
scalar geant_cost_network.node[4].content_store 	p_hit[4] 	0.023821665816726
scalar geant_cost_network.node[4].content_store 	hits[4] 	7147
scalar geant_cost_network.node[4].content_store 	misses[4] 	292874
scalar geant_cost_network.node[4].content_store 	decision_yes[4] 	2171
scalar geant_cost_network.node[4].content_store 	decision_no[4] 	290234
scalar geant_cost_network.node[4].content_store 	decision_ratio[4] 	0.0074246336416956
scalar geant_cost_network.node[4].content_store 	correction_factor[4] 	0.0027225701061802
scalar geant_cost_network.node[4].content_store 	xi[4] 	1
scalar geant_cost_network.node[5].core_layer 	interests[5] 	195646
scalar geant_cost_network.node[5].core_layer 	data[5] 	178666
scalar geant_cost_network.node[5].content_store 	p_hit[5] 	0.077563558672296
scalar geant_cost_network.node[5].content_store 	hits[5] 	15175
scalar geant_cost_network.node[5].content_store 	misses[5] 	180471
scalar geant_cost_network.node[5].content_store 	decision_yes[5] 	766
scalar geant_cost_network.node[5].content_store 	decision_no[5] 	177900
scalar geant_cost_network.node[5].content_store 	decision_ratio[5] 	0.0042873294303337
scalar geant_cost_network.node[5].content_store 	correction_factor[5] 	0.0027225701061802
scalar geant_cost_network.node[5].content_store 	xi[5] 	1
scalar geant_cost_network.node[6].core_layer 	interests[6] 	111490
scalar geant_cost_network.node[6].core_layer 	data[6] 	103721
scalar geant_cost_network.node[6].content_store 	p_hit[6] 	0.069683379675307
scalar geant_cost_network.node[6].content_store 	hits[6] 	7769
scalar geant_cost_network.node[6].content_store 	misses[6] 	103721
scalar geant_cost_network.node[6].content_store 	decision_yes[6] 	58
scalar geant_cost_network.node[6].content_store 	decision_no[6] 	103663
scalar geant_cost_network.node[6].content_store 	decision_ratio[6] 	0.00055919244897369
scalar geant_cost_network.node[6].content_store 	correction_factor[6] 	0.0027225701061802
scalar geant_cost_network.node[6].content_store 	xi[6] 	1
scalar geant_cost_network.node[7].core_layer 	interests[7] 	443557
scalar geant_cost_network.node[7].core_layer 	data[7] 	426356
scalar geant_cost_network.node[7].content_store 	p_hit[7] 	0.038772919827666
scalar geant_cost_network.node[7].content_store 	hits[7] 	17198
scalar geant_cost_network.node[7].content_store 	misses[7] 	426359
scalar geant_cost_network.node[7].content_store 	decision_yes[7] 	141
scalar geant_cost_network.node[7].content_store 	decision_no[7] 	426215
scalar geant_cost_network.node[7].content_store 	decision_ratio[7] 	0.00033070954788956
scalar geant_cost_network.node[7].content_store 	correction_factor[7] 	0.0027225701061802
scalar geant_cost_network.node[7].content_store 	xi[7] 	1
scalar geant_cost_network.node[8].core_layer 	interests[8] 	324059
scalar geant_cost_network.node[8].core_layer 	data[8] 	298546
scalar geant_cost_network.node[8].content_store 	p_hit[8] 	0.078732576475271
scalar geant_cost_network.node[8].content_store 	hits[8] 	25514
scalar geant_cost_network.node[8].content_store 	misses[8] 	298545
scalar geant_cost_network.node[8].content_store 	decision_yes[8] 	396
scalar geant_cost_network.node[8].content_store 	decision_no[8] 	298150
scalar geant_cost_network.node[8].content_store 	decision_ratio[8] 	0.0013264287580473
scalar geant_cost_network.node[8].content_store 	correction_factor[8] 	0.0027225701061802
scalar geant_cost_network.node[8].content_store 	xi[8] 	1
scalar geant_cost_network.node[9].core_layer 	interests[9] 	438724
scalar geant_cost_network.node[9].core_layer 	data[9] 	362934
scalar geant_cost_network.node[9].content_store 	p_hit[9] 	0.16940263126704
scalar geant_cost_network.node[9].content_store 	hits[9] 	74321
scalar geant_cost_network.node[9].content_store 	misses[9] 	364403
scalar geant_cost_network.node[9].content_store 	decision_yes[9] 	1656
scalar geant_cost_network.node[9].content_store 	decision_no[9] 	361278
scalar geant_cost_network.node[9].content_store 	decision_ratio[9] 	0.0045628130734514
scalar geant_cost_network.node[9].content_store 	correction_factor[9] 	0.0027225701061802
scalar geant_cost_network.node[9].content_store 	xi[9] 	1
scalar geant_cost_network.node[10].core_layer 	interests[10] 	197120
scalar geant_cost_network.node[10].core_layer 	data[10] 	173628
scalar geant_cost_network.node[10].content_store 	p_hit[10] 	0.11472706980519
scalar geant_cost_network.node[10].content_store 	hits[10] 	22615
scalar geant_cost_network.node[10].content_store 	misses[10] 	174505
scalar geant_cost_network.node[10].content_store 	decision_yes[10] 	762
scalar geant_cost_network.node[10].content_store 	decision_no[10] 	172866
scalar geant_cost_network.node[10].content_store 	decision_ratio[10] 	0.0043886930679384
scalar geant_cost_network.node[10].content_store 	correction_factor[10] 	0.0027225701061802
scalar geant_cost_network.node[10].content_store 	xi[10] 	1
scalar geant_cost_network.node[11].core_layer 	interests[11] 	0
scalar geant_cost_network.node[11].core_layer 	data[11] 	0
scalar geant_cost_network.node[11].content_store 	p_hit[11] 	-nan
scalar geant_cost_network.node[11].content_store 	hits[11] 	0
scalar geant_cost_network.node[11].content_store 	misses[11] 	0
scalar geant_cost_network.node[11].content_store 	decision_yes[11] 	0
scalar geant_cost_network.node[11].content_store 	decision_no[11] 	0
scalar geant_cost_network.node[11].content_store 	decision_ratio[11] 	0
scalar geant_cost_network.node[11].content_store 	correction_factor[11] 	0.0027225701061802
scalar geant_cost_network.node[11].content_store 	xi[11] 	1
scalar geant_cost_network.node[12].core_layer 	interests[12] 	300608
scalar geant_cost_network.node[12].core_layer 	data[12] 	284590
scalar geant_cost_network.node[12].content_store 	p_hit[12] 	0.04927347242921
scalar geant_cost_network.node[12].content_store 	hits[12] 	14812
scalar geant_cost_network.node[12].content_store 	misses[12] 	285796
scalar geant_cost_network.node[12].content_store 	decision_yes[12] 	2199
scalar geant_cost_network.node[12].content_store 	decision_no[12] 	282391
scalar geant_cost_network.node[12].content_store 	decision_ratio[12] 	0.0077269053726413
scalar geant_cost_network.node[12].content_store 	correction_factor[12] 	0.0027225701061802
scalar geant_cost_network.node[12].content_store 	xi[12] 	1
scalar geant_cost_network.node[13].core_layer 	interests[13] 	7058
scalar geant_cost_network.node[13].core_layer 	data[13] 	7059
scalar geant_cost_network.node[13].content_store 	p_hit[13] 	0
scalar geant_cost_network.node[13].content_store 	hits[13] 	0
scalar geant_cost_network.node[13].content_store 	misses[13] 	7058
scalar geant_cost_network.node[13].content_store 	decision_yes[13] 	0
scalar geant_cost_network.node[13].content_store 	decision_no[13] 	7059
scalar geant_cost_network.node[13].content_store 	decision_ratio[13] 	0
scalar geant_cost_network.node[13].content_store 	correction_factor[13] 	0.0027225701061802
scalar geant_cost_network.node[13].content_store 	xi[13] 	1
scalar geant_cost_network.node[14].core_layer 	interests[14] 	53299
scalar geant_cost_network.node[14].core_layer 	data[14] 	41371
scalar geant_cost_network.node[14].content_store 	p_hit[14] 	0.22379406743091
scalar geant_cost_network.node[14].content_store 	hits[14] 	11928
scalar geant_cost_network.node[14].content_store 	misses[14] 	41371
scalar geant_cost_network.node[14].content_store 	decision_yes[14] 	705
scalar geant_cost_network.node[14].content_store 	decision_no[14] 	40666
scalar geant_cost_network.node[14].content_store 	decision_ratio[14] 	0.017040922385246
scalar geant_cost_network.node[14].content_store 	correction_factor[14] 	0.0027225701061802
scalar geant_cost_network.node[14].content_store 	xi[14] 	1
scalar geant_cost_network.node[15].core_layer 	interests[15] 	0
scalar geant_cost_network.node[15].core_layer 	data[15] 	0
scalar geant_cost_network.node[15].content_store 	p_hit[15] 	-nan
scalar geant_cost_network.node[15].content_store 	hits[15] 	0
scalar geant_cost_network.node[15].content_store 	misses[15] 	0
scalar geant_cost_network.node[15].content_store 	decision_yes[15] 	0
scalar geant_cost_network.node[15].content_store 	decision_no[15] 	0
scalar geant_cost_network.node[15].content_store 	decision_ratio[15] 	0
scalar geant_cost_network.node[15].content_store 	correction_factor[15] 	0.0027225701061802
scalar geant_cost_network.node[15].content_store 	xi[15] 	1
scalar geant_cost_network.node[16].core_layer 	interests[16] 	0
scalar geant_cost_network.node[16].core_layer 	data[16] 	0
scalar geant_cost_network.node[16].content_store 	p_hit[16] 	-nan
scalar geant_cost_network.node[16].content_store 	hits[16] 	0
scalar geant_cost_network.node[16].content_store 	misses[16] 	0
scalar geant_cost_network.node[16].content_store 	decision_yes[16] 	0
scalar geant_cost_network.node[16].content_store 	decision_no[16] 	0
scalar geant_cost_network.node[16].content_store 	decision_ratio[16] 	0
scalar geant_cost_network.node[16].content_store 	correction_factor[16] 	0.0027225701061802
scalar geant_cost_network.node[16].content_store 	xi[16] 	1
scalar geant_cost_network.node[17].core_layer 	interests[17] 	0
scalar geant_cost_network.node[17].core_layer 	data[17] 	0
scalar geant_cost_network.node[17].content_store 	p_hit[17] 	-nan
scalar geant_cost_network.node[17].content_store 	hits[17] 	0
scalar geant_cost_network.node[17].content_store 	misses[17] 	0
scalar geant_cost_network.node[17].content_store 	decision_yes[17] 	0
scalar geant_cost_network.node[17].content_store 	decision_no[17] 	0
scalar geant_cost_network.node[17].content_store 	decision_ratio[17] 	0
scalar geant_cost_network.node[17].content_store 	correction_factor[17] 	0.0027225701061802
scalar geant_cost_network.node[17].content_store 	xi[17] 	1
scalar geant_cost_network.node[18].core_layer 	interests[18] 	155684
scalar geant_cost_network.node[18].core_layer 	data[18] 	149423
scalar geant_cost_network.node[18].content_store 	p_hit[18] 	0.040151846047121
scalar geant_cost_network.node[18].content_store 	hits[18] 	6251
scalar geant_cost_network.node[18].content_store 	misses[18] 	149433
scalar geant_cost_network.node[18].content_store 	decision_yes[18] 	76
scalar geant_cost_network.node[18].content_store 	decision_no[18] 	149347
scalar geant_cost_network.node[18].content_store 	decision_ratio[18] 	0.00050862317046238
scalar geant_cost_network.node[18].content_store 	correction_factor[18] 	0.0027225701061802
scalar geant_cost_network.node[18].content_store 	xi[18] 	1
scalar geant_cost_network.node[19].core_layer 	interests[19] 	0
scalar geant_cost_network.node[19].core_layer 	data[19] 	0
scalar geant_cost_network.node[19].content_store 	p_hit[19] 	-nan
scalar geant_cost_network.node[19].content_store 	hits[19] 	0
scalar geant_cost_network.node[19].content_store 	misses[19] 	0
scalar geant_cost_network.node[19].content_store 	decision_yes[19] 	0
scalar geant_cost_network.node[19].content_store 	decision_no[19] 	0
scalar geant_cost_network.node[19].content_store 	decision_ratio[19] 	0
scalar geant_cost_network.node[19].content_store 	correction_factor[19] 	0.0027225701061802
scalar geant_cost_network.node[19].content_store 	xi[19] 	1
scalar geant_cost_network.node[20].core_layer 	interests[20] 	193545
scalar geant_cost_network.node[20].core_layer 	data[20] 	171017
scalar geant_cost_network.node[20].content_store 	p_hit[20] 	0.10709137409905
scalar geant_cost_network.node[20].content_store 	hits[20] 	20727
scalar geant_cost_network.node[20].content_store 	misses[20] 	172818
scalar geant_cost_network.node[20].content_store 	decision_yes[20] 	756
scalar geant_cost_network.node[20].content_store 	decision_no[20] 	170261
scalar geant_cost_network.node[20].content_store 	decision_ratio[20] 	0.0044206131554173
scalar geant_cost_network.node[20].content_store 	correction_factor[20] 	0.0027225701061802
scalar geant_cost_network.node[20].content_store 	xi[20] 	1
scalar geant_cost_network.node[21].core_layer 	interests[21] 	143796
scalar geant_cost_network.node[21].core_layer 	data[21] 	130333
scalar geant_cost_network.node[21].content_store 	p_hit[21] 	0.093625691952488
scalar geant_cost_network.node[21].content_store 	hits[21] 	13463
scalar geant_cost_network.node[21].content_store 	misses[21] 	130333
scalar geant_cost_network.node[21].content_store 	decision_yes[21] 	3689
scalar geant_cost_network.node[21].content_store 	decision_no[21] 	126644
scalar geant_cost_network.node[21].content_store 	decision_ratio[21] 	0.028304420215908
scalar geant_cost_network.node[21].content_store 	correction_factor[21] 	0.0027225701061802
scalar geant_cost_network.node[21].content_store 	xi[21] 	1
scalar geant_cost_network.node[22].core_layer 	interests[22] 	346261
scalar geant_cost_network.node[22].core_layer 	repo_load[22] 	346261
scalar geant_cost_network.node[22].core_layer 	data[22] 	0
scalar geant_cost_network.node[22].content_store 	p_hit[22] 	0
scalar geant_cost_network.node[22].content_store 	hits[22] 	0
scalar geant_cost_network.node[22].content_store 	misses[22] 	346261
scalar geant_cost_network.node[22].content_store 	decision_yes[22] 	0
scalar geant_cost_network.node[22].content_store 	decision_no[22] 	346261
scalar geant_cost_network.node[22].content_store 	decision_ratio[22] 	0
scalar geant_cost_network.node[23].core_layer 	interests[23] 	135648
scalar geant_cost_network.node[23].core_layer 	repo_load[23] 	135648
scalar geant_cost_network.node[23].core_layer 	data[23] 	0
scalar geant_cost_network.node[23].content_store 	p_hit[23] 	0
scalar geant_cost_network.node[23].content_store 	hits[23] 	0
scalar geant_cost_network.node[23].content_store 	misses[23] 	135648
scalar geant_cost_network.node[23].content_store 	decision_yes[23] 	0
scalar geant_cost_network.node[23].content_store 	decision_no[23] 	135648
scalar geant_cost_network.node[23].content_store 	decision_ratio[23] 	0
scalar geant_cost_network.node[24].core_layer 	interests[24] 	130333
scalar geant_cost_network.node[24].core_layer 	repo_load[24] 	130333
scalar geant_cost_network.node[24].core_layer 	data[24] 	0
scalar geant_cost_network.node[24].content_store 	p_hit[24] 	0
scalar geant_cost_network.node[24].content_store 	hits[24] 	0
scalar geant_cost_network.node[24].content_store 	misses[24] 	130333
scalar geant_cost_network.node[24].content_store 	decision_yes[24] 	0
scalar geant_cost_network.node[24].content_store 	decision_no[24] 	130333
scalar geant_cost_network.node[24].content_store 	decision_ratio[24] 	0
scalar geant_cost_network.client[5] 	hdistance[5] 	3.5570942200222
scalar geant_cost_network.client[5] 	downloads[5] 	178582
scalar geant_cost_network.client[5] 	avg_time[5] 	0.009676206231
scalar geant_cost_network.client[5] 	interests_sent[5] 	180385
scalar geant_cost_network.client[9] 	hdistance[9] 	3.3566722869234
scalar geant_cost_network.client[9] 	downloads[9] 	179114
scalar geant_cost_network.client[9] 	avg_time[9] 	0.004682731966
scalar geant_cost_network.client[9] 	interests_sent[9] 	179622
scalar geant_cost_network.client[10] 	hdistance[10] 	4.2937751205228
scalar geant_cost_network.client[10] 	downloads[10] 	179634
scalar geant_cost_network.client[10] 	avg_time[10] 	0.006471635721
scalar geant_cost_network.client[10] 	interests_sent[10] 	180511
scalar geant_cost_network.client[12] 	hdistance[12] 	3.7941117575731
scalar geant_cost_network.client[12] 	downloads[12] 	179782
scalar geant_cost_network.client[12] 	avg_time[12] 	0.005757243476
scalar geant_cost_network.client[12] 	interests_sent[12] 	180636
scalar geant_cost_network.client[20] 	hdistance[20] 	4.2052533926759
scalar geant_cost_network.client[20] 	downloads[20] 	178399
scalar geant_cost_network.client[20] 	avg_time[20] 	0.008086134474
scalar geant_cost_network.client[20] 	interests_sent[20] 	180200
