version 2
run General-19-20140627-18:33:39-22650
attr D costprobprodcorr0.01
attr F nrr
attr R lru
attr a 1
attr configname General
attr csize 1e3
attr ctlg 1e5
attr datetime 20140627-18:33:39
attr experiment General
attr inifile omnetpp.ini
attr iterationvars "$net=geant_cost, $rep=16, $priceratiovalue=10, $weights=0.333_0.333_0.334, $lambda=100, $a=1, $ctlg=1e5, $F=nrr, $ttl=1000, $D=costprobprodcorr0.01, $xi=1, $R=lru, $csize=1e3, $pricebits=0, $window=60, $variance=0.05, $mytime=1800"
attr iterationvars2 "$net=geant_cost, $rep=16, $priceratiovalue=10, $weights=0.333_0.333_0.334, $lambda=100, $a=1, $ctlg=1e5, $F=nrr, $ttl=1000, $D=costprobprodcorr0.01, $xi=1, $R=lru, $csize=1e3, $pricebits=0, $window=60, $variance=0.05, $mytime=1800, $repetition=0"
attr lambda 100
attr measurement "$net=geant_cost, $rep=16, $priceratiovalue=10, $weights=0.333_0.333_0.334, $lambda=100, $a=1, $ctlg=1e5, $F=nrr, $ttl=1000, $D=costprobprodcorr0.01, $xi=1, $R=lru, $csize=1e3, $pricebits=0, $window=60, $variance=0.05, $mytime=1800"
attr mytime 1800
attr net geant_cost
attr network "networks.${net=geant_cost, abilene_cost}_network"
attr pricebits 0
attr priceratiovalue 10
attr processid 22650
attr rep 16
attr repetition 0
attr replication #0
attr resultdir results
attr runnumber 19
attr seedset 16
attr ttl 1000
attr variance 0.05
attr weights 0.333_0.333_0.334
attr window 60
attr xi 1

scalar . 	a 	1
scalar . 	csize 	1e3
scalar . 	ctlg 	1e5
scalar . 	lambda 	100
scalar . 	mytime 	1800
scalar . 	pricebits 	0
scalar . 	priceratiovalue 	10
scalar . 	rep 	16
scalar . 	ttl 	1000
scalar . 	variance 	0.05
scalar . 	window 	60
scalar . 	xi 	1
scalar geant_cost_network.content_distribution 	repo-0 	22
scalar geant_cost_network.content_distribution 	repo-1 	23
scalar geant_cost_network.content_distribution 	repo-2 	24
scalar geant_cost_network.content_distribution 	client-0 	20
scalar geant_cost_network.content_distribution 	client-1 	10
scalar geant_cost_network.content_distribution 	client-2 	12
scalar geant_cost_network.content_distribution 	client-3 	9
scalar geant_cost_network.content_distribution 	client-4 	5
scalar geant_cost_network.content_distribution 	repo-0_card 	33302
scalar geant_cost_network.content_distribution 	repo-1_card 	33208
scalar geant_cost_network.content_distribution 	repo-2_card 	33490
scalar geant_cost_network.statistics 	repo_popularity[0] 	0.38028263519115
scalar geant_cost_network.statistics 	repo_popularity[1] 	0.2853641311191
scalar geant_cost_network.statistics 	repo_popularity[2] 	0.33435323368975
scalar geant_cost_network.statistics 	stabilization_time 	36060
scalar geant_cost_network.node[7].face$o[4].channel 	price[7] 	0
scalar geant_cost_network.node[7].face$o[4].channel 	represented_price[7] 	0
scalar geant_cost_network.node[8].face$o[3].channel 	price[8] 	0
scalar geant_cost_network.node[8].face$o[3].channel 	represented_price[8] 	0
scalar geant_cost_network.node[21].face$o[5].channel 	price[21] 	0
scalar geant_cost_network.node[21].face$o[5].channel 	represented_price[21] 	0
scalar geant_cost_network.node[22].face$o[1].channel 	price[22] 	0
scalar geant_cost_network.node[22].face$o[1].channel 	represented_price[22] 	0
scalar geant_cost_network.node[23].face$o[1].channel 	price[23] 	1
scalar geant_cost_network.node[23].face$o[1].channel 	represented_price[23] 	1
scalar geant_cost_network.node[24].face$o[1].channel 	price[24] 	10
scalar geant_cost_network.node[24].face$o[1].channel 	represented_price[24] 	10
scalar geant_cost_network.statistics 	p_hit 	0.078028890765267
scalar geant_cost_network.statistics 	interests 	148418.36
scalar geant_cost_network.statistics 	data 	112454.88
scalar geant_cost_network.statistics 	hdistance 	3.8289337675591
scalar geant_cost_network.statistics 	avg_time 	0.00718741688
scalar geant_cost_network.statistics 	downloads 	893072
scalar geant_cost_network.statistics 	total_cost 	1445960
scalar geant_cost_network.statistics 	total_replicas 	100000
scalar geant_cost_network.statistics 	inner_hit 	0.32666571116327
scalar geant_cost_network.statistics 	interests_sent 	899091
scalar geant_cost_network.node[0].core_layer 	interests[0] 	0
scalar geant_cost_network.node[0].core_layer 	data[0] 	0
scalar geant_cost_network.node[0].core_layer 	repo_int[0] 	601336
scalar geant_cost_network.node[0].content_store 	p_hit[0] 	-nan
scalar geant_cost_network.node[0].content_store 	hits[0] 	0
scalar geant_cost_network.node[0].content_store 	misses[0] 	0
scalar geant_cost_network.node[0].content_store 	decision_yes[0] 	0
scalar geant_cost_network.node[0].content_store 	decision_no[0] 	0
scalar geant_cost_network.node[0].content_store 	decision_ratio[0] 	0
scalar geant_cost_network.node[0].content_store 	correction_factor[0] 	0.0027225701061802
scalar geant_cost_network.node[0].content_store 	xi[0] 	1
scalar geant_cost_network.node[1].core_layer 	interests[1] 	0
scalar geant_cost_network.node[1].core_layer 	data[1] 	0
scalar geant_cost_network.node[1].content_store 	p_hit[1] 	-nan
scalar geant_cost_network.node[1].content_store 	hits[1] 	0
scalar geant_cost_network.node[1].content_store 	misses[1] 	0
scalar geant_cost_network.node[1].content_store 	decision_yes[1] 	0
scalar geant_cost_network.node[1].content_store 	decision_no[1] 	0
scalar geant_cost_network.node[1].content_store 	decision_ratio[1] 	0
scalar geant_cost_network.node[1].content_store 	correction_factor[1] 	0.0027225701061802
scalar geant_cost_network.node[1].content_store 	xi[1] 	1
scalar geant_cost_network.node[2].core_layer 	interests[2] 	0
scalar geant_cost_network.node[2].core_layer 	data[2] 	0
scalar geant_cost_network.node[2].content_store 	p_hit[2] 	-nan
scalar geant_cost_network.node[2].content_store 	hits[2] 	0
scalar geant_cost_network.node[2].content_store 	misses[2] 	0
scalar geant_cost_network.node[2].content_store 	decision_yes[2] 	0
scalar geant_cost_network.node[2].content_store 	decision_no[2] 	0
scalar geant_cost_network.node[2].content_store 	decision_ratio[2] 	0
scalar geant_cost_network.node[2].content_store 	correction_factor[2] 	0.0027225701061802
scalar geant_cost_network.node[2].content_store 	xi[2] 	1
scalar geant_cost_network.node[3].core_layer 	interests[3] 	238663
scalar geant_cost_network.node[3].core_layer 	data[3] 	205830
scalar geant_cost_network.node[3].content_store 	p_hit[3] 	0.13754959922569
scalar geant_cost_network.node[3].content_store 	hits[3] 	32828
scalar geant_cost_network.node[3].content_store 	misses[3] 	205835
scalar geant_cost_network.node[3].content_store 	decision_yes[3] 	2032
scalar geant_cost_network.node[3].content_store 	decision_no[3] 	203798
scalar geant_cost_network.node[3].content_store 	decision_ratio[3] 	0.0098722246514114
scalar geant_cost_network.node[3].content_store 	correction_factor[3] 	0.0027225701061802
scalar geant_cost_network.node[3].content_store 	xi[3] 	1
scalar geant_cost_network.node[4].core_layer 	interests[4] 	298562
scalar geant_cost_network.node[4].core_layer 	data[4] 	281405
scalar geant_cost_network.node[4].content_store 	p_hit[4] 	0.055914684387162
scalar geant_cost_network.node[4].content_store 	hits[4] 	16694
scalar geant_cost_network.node[4].content_store 	misses[4] 	281868
scalar geant_cost_network.node[4].content_store 	decision_yes[4] 	2182
scalar geant_cost_network.node[4].content_store 	decision_no[4] 	279223
scalar geant_cost_network.node[4].content_store 	decision_ratio[4] 	0.0077539489348093
scalar geant_cost_network.node[4].content_store 	correction_factor[4] 	0.0027225701061802
scalar geant_cost_network.node[4].content_store 	xi[4] 	1
scalar geant_cost_network.node[5].core_layer 	interests[5] 	206742
scalar geant_cost_network.node[5].core_layer 	data[5] 	177145
scalar geant_cost_network.node[5].content_store 	p_hit[5] 	0.1347766781786
scalar geant_cost_network.node[5].content_store 	hits[5] 	27864
scalar geant_cost_network.node[5].content_store 	misses[5] 	178878
scalar geant_cost_network.node[5].content_store 	decision_yes[5] 	776
scalar geant_cost_network.node[5].content_store 	decision_no[5] 	176369
scalar geant_cost_network.node[5].content_store 	decision_ratio[5] 	0.004380592170256
scalar geant_cost_network.node[5].content_store 	correction_factor[5] 	0.0027225701061802
scalar geant_cost_network.node[5].content_store 	xi[5] 	1
scalar geant_cost_network.node[6].core_layer 	interests[6] 	119468
scalar geant_cost_network.node[6].core_layer 	data[6] 	107840
scalar geant_cost_network.node[6].content_store 	p_hit[6] 	0.097331502996618
scalar geant_cost_network.node[6].content_store 	hits[6] 	11628
scalar geant_cost_network.node[6].content_store 	misses[6] 	107840
scalar geant_cost_network.node[6].content_store 	decision_yes[6] 	70
scalar geant_cost_network.node[6].content_store 	decision_no[6] 	107770
scalar geant_cost_network.node[6].content_store 	decision_ratio[6] 	0.00064910979228487
scalar geant_cost_network.node[6].content_store 	correction_factor[6] 	0.0027225701061802
scalar geant_cost_network.node[6].content_store 	xi[6] 	1
scalar geant_cost_network.node[7].core_layer 	interests[7] 	436843
scalar geant_cost_network.node[7].core_layer 	data[7] 	418091
scalar geant_cost_network.node[7].content_store 	p_hit[7] 	0.042624009083355
scalar geant_cost_network.node[7].content_store 	hits[7] 	18620
scalar geant_cost_network.node[7].content_store 	misses[7] 	418223
scalar geant_cost_network.node[7].content_store 	decision_yes[7] 	147
scalar geant_cost_network.node[7].content_store 	decision_no[7] 	417944
scalar geant_cost_network.node[7].content_store 	decision_ratio[7] 	0.00035159809706499
scalar geant_cost_network.node[7].content_store 	correction_factor[7] 	0.0027225701061802
scalar geant_cost_network.node[7].content_store 	xi[7] 	1
scalar geant_cost_network.node[8].core_layer 	interests[8] 	339990
scalar geant_cost_network.node[8].core_layer 	data[8] 	283921
scalar geant_cost_network.node[8].content_store 	p_hit[8] 	0.16491367393159
scalar geant_cost_network.node[8].content_store 	hits[8] 	56069
scalar geant_cost_network.node[8].content_store 	misses[8] 	283921
scalar geant_cost_network.node[8].content_store 	decision_yes[8] 	342
scalar geant_cost_network.node[8].content_store 	decision_no[8] 	283579
scalar geant_cost_network.node[8].content_store 	decision_ratio[8] 	0.0012045604234981
scalar geant_cost_network.node[8].content_store 	correction_factor[8] 	0.0027225701061802
scalar geant_cost_network.node[8].content_store 	xi[8] 	1
scalar geant_cost_network.node[9].core_layer 	interests[9] 	410703
scalar geant_cost_network.node[9].core_layer 	data[9] 	385926
scalar geant_cost_network.node[9].content_store 	p_hit[9] 	0.055909014543356
scalar geant_cost_network.node[9].content_store 	hits[9] 	22962
scalar geant_cost_network.node[9].content_store 	misses[9] 	387741
scalar geant_cost_network.node[9].content_store 	decision_yes[9] 	1615
scalar geant_cost_network.node[9].content_store 	decision_no[9] 	384311
scalar geant_cost_network.node[9].content_store 	decision_ratio[9] 	0.0041847400797044
scalar geant_cost_network.node[9].content_store 	correction_factor[9] 	0.0027225701061802
scalar geant_cost_network.node[9].content_store 	xi[9] 	1
scalar geant_cost_network.node[10].core_layer 	interests[10] 	194027
scalar geant_cost_network.node[10].core_layer 	data[10] 	171671
scalar geant_cost_network.node[10].content_store 	p_hit[10] 	0.11036608307091
scalar geant_cost_network.node[10].content_store 	hits[10] 	21414
scalar geant_cost_network.node[10].content_store 	misses[10] 	172613
scalar geant_cost_network.node[10].content_store 	decision_yes[10] 	789
scalar geant_cost_network.node[10].content_store 	decision_no[10] 	170882
scalar geant_cost_network.node[10].content_store 	decision_ratio[10] 	0.004596000489308
scalar geant_cost_network.node[10].content_store 	correction_factor[10] 	0.0027225701061802
scalar geant_cost_network.node[10].content_store 	xi[10] 	1
scalar geant_cost_network.node[11].core_layer 	interests[11] 	0
scalar geant_cost_network.node[11].core_layer 	data[11] 	0
scalar geant_cost_network.node[11].content_store 	p_hit[11] 	-nan
scalar geant_cost_network.node[11].content_store 	hits[11] 	0
scalar geant_cost_network.node[11].content_store 	misses[11] 	0
scalar geant_cost_network.node[11].content_store 	decision_yes[11] 	0
scalar geant_cost_network.node[11].content_store 	decision_no[11] 	0
scalar geant_cost_network.node[11].content_store 	decision_ratio[11] 	0
scalar geant_cost_network.node[11].content_store 	correction_factor[11] 	0.0027225701061802
scalar geant_cost_network.node[11].content_store 	xi[11] 	1
scalar geant_cost_network.node[12].core_layer 	interests[12] 	297352
scalar geant_cost_network.node[12].core_layer 	data[12] 	277041
scalar geant_cost_network.node[12].content_store 	p_hit[12] 	0.063601388253652
scalar geant_cost_network.node[12].content_store 	hits[12] 	18912
scalar geant_cost_network.node[12].content_store 	misses[12] 	278440
scalar geant_cost_network.node[12].content_store 	decision_yes[12] 	2085
scalar geant_cost_network.node[12].content_store 	decision_no[12] 	274956
scalar geant_cost_network.node[12].content_store 	decision_ratio[12] 	0.0075259618612408
scalar geant_cost_network.node[12].content_store 	correction_factor[12] 	0.0027225701061802
scalar geant_cost_network.node[12].content_store 	xi[12] 	1
scalar geant_cost_network.node[13].core_layer 	interests[13] 	9198
scalar geant_cost_network.node[13].core_layer 	data[13] 	9198
scalar geant_cost_network.node[13].content_store 	p_hit[13] 	0
scalar geant_cost_network.node[13].content_store 	hits[13] 	0
scalar geant_cost_network.node[13].content_store 	misses[13] 	9198
scalar geant_cost_network.node[13].content_store 	decision_yes[13] 	0
scalar geant_cost_network.node[13].content_store 	decision_no[13] 	9198
scalar geant_cost_network.node[13].content_store 	decision_ratio[13] 	0
scalar geant_cost_network.node[13].content_store 	correction_factor[13] 	0.0027225701061802
scalar geant_cost_network.node[13].content_store 	xi[13] 	1
scalar geant_cost_network.node[14].core_layer 	interests[14] 	63100
scalar geant_cost_network.node[14].core_layer 	data[14] 	47485
scalar geant_cost_network.node[14].content_store 	p_hit[14] 	0.24746434231379
scalar geant_cost_network.node[14].content_store 	hits[14] 	15615
scalar geant_cost_network.node[14].content_store 	misses[14] 	47485
scalar geant_cost_network.node[14].content_store 	decision_yes[14] 	697
scalar geant_cost_network.node[14].content_store 	decision_no[14] 	46788
scalar geant_cost_network.node[14].content_store 	decision_ratio[14] 	0.014678319469306
scalar geant_cost_network.node[14].content_store 	correction_factor[14] 	0.0027225701061802
scalar geant_cost_network.node[14].content_store 	xi[14] 	1
scalar geant_cost_network.node[15].core_layer 	interests[15] 	0
scalar geant_cost_network.node[15].core_layer 	data[15] 	0
scalar geant_cost_network.node[15].content_store 	p_hit[15] 	-nan
scalar geant_cost_network.node[15].content_store 	hits[15] 	0
scalar geant_cost_network.node[15].content_store 	misses[15] 	0
scalar geant_cost_network.node[15].content_store 	decision_yes[15] 	0
scalar geant_cost_network.node[15].content_store 	decision_no[15] 	0
scalar geant_cost_network.node[15].content_store 	decision_ratio[15] 	0
scalar geant_cost_network.node[15].content_store 	correction_factor[15] 	0.0027225701061802
scalar geant_cost_network.node[15].content_store 	xi[15] 	1
scalar geant_cost_network.node[16].core_layer 	interests[16] 	0
scalar geant_cost_network.node[16].core_layer 	data[16] 	0
scalar geant_cost_network.node[16].content_store 	p_hit[16] 	-nan
scalar geant_cost_network.node[16].content_store 	hits[16] 	0
scalar geant_cost_network.node[16].content_store 	misses[16] 	0
scalar geant_cost_network.node[16].content_store 	decision_yes[16] 	0
scalar geant_cost_network.node[16].content_store 	decision_no[16] 	0
scalar geant_cost_network.node[16].content_store 	decision_ratio[16] 	0
scalar geant_cost_network.node[16].content_store 	correction_factor[16] 	0.0027225701061802
scalar geant_cost_network.node[16].content_store 	xi[16] 	1
scalar geant_cost_network.node[17].core_layer 	interests[17] 	0
scalar geant_cost_network.node[17].core_layer 	data[17] 	0
scalar geant_cost_network.node[17].content_store 	p_hit[17] 	-nan
scalar geant_cost_network.node[17].content_store 	hits[17] 	0
scalar geant_cost_network.node[17].content_store 	misses[17] 	0
scalar geant_cost_network.node[17].content_store 	decision_yes[17] 	0
scalar geant_cost_network.node[17].content_store 	decision_no[17] 	0
scalar geant_cost_network.node[17].content_store 	decision_ratio[17] 	0
scalar geant_cost_network.node[17].content_store 	correction_factor[17] 	0.0027225701061802
scalar geant_cost_network.node[17].content_store 	xi[17] 	1
scalar geant_cost_network.node[18].core_layer 	interests[18] 	152418
scalar geant_cost_network.node[18].core_layer 	data[18] 	147069
scalar geant_cost_network.node[18].content_store 	p_hit[18] 	0.035081158393366
scalar geant_cost_network.node[18].content_store 	hits[18] 	5347
scalar geant_cost_network.node[18].content_store 	misses[18] 	147071
scalar geant_cost_network.node[18].content_store 	decision_yes[18] 	101
scalar geant_cost_network.node[18].content_store 	decision_no[18] 	146968
scalar geant_cost_network.node[18].content_store 	decision_ratio[18] 	0.00068675247672861
scalar geant_cost_network.node[18].content_store 	correction_factor[18] 	0.0027225701061802
scalar geant_cost_network.node[18].content_store 	xi[18] 	1
scalar geant_cost_network.node[19].core_layer 	interests[19] 	0
scalar geant_cost_network.node[19].core_layer 	data[19] 	0
scalar geant_cost_network.node[19].content_store 	p_hit[19] 	-nan
scalar geant_cost_network.node[19].content_store 	hits[19] 	0
scalar geant_cost_network.node[19].content_store 	misses[19] 	0
scalar geant_cost_network.node[19].content_store 	decision_yes[19] 	0
scalar geant_cost_network.node[19].content_store 	decision_no[19] 	0
scalar geant_cost_network.node[19].content_store 	decision_ratio[19] 	0
scalar geant_cost_network.node[19].content_store 	correction_factor[19] 	0.0027225701061802
scalar geant_cost_network.node[19].content_store 	xi[19] 	1
scalar geant_cost_network.node[20].core_layer 	interests[20] 	194887
scalar geant_cost_network.node[20].core_layer 	data[20] 	167522
scalar geant_cost_network.node[20].content_store 	p_hit[20] 	0.1315018446587
scalar geant_cost_network.node[20].content_store 	hits[20] 	25628
scalar geant_cost_network.node[20].content_store 	misses[20] 	169259
scalar geant_cost_network.node[20].content_store 	decision_yes[20] 	798
scalar geant_cost_network.node[20].content_store 	decision_no[20] 	166724
scalar geant_cost_network.node[20].content_store 	decision_ratio[20] 	0.0047635534437268
scalar geant_cost_network.node[20].content_store 	correction_factor[20] 	0.0027225701061802
scalar geant_cost_network.node[20].content_store 	xi[20] 	1
scalar geant_cost_network.node[21].core_layer 	interests[21] 	147170
scalar geant_cost_network.node[21].core_layer 	data[21] 	131228
scalar geant_cost_network.node[21].content_store 	p_hit[21] 	0.1083237072773
scalar geant_cost_network.node[21].content_store 	hits[21] 	15942
scalar geant_cost_network.node[21].content_store 	misses[21] 	131228
scalar geant_cost_network.node[21].content_store 	decision_yes[21] 	3547
scalar geant_cost_network.node[21].content_store 	decision_no[21] 	127681
scalar geant_cost_network.node[21].content_store 	decision_ratio[21] 	0.027029292529033
scalar geant_cost_network.node[21].content_store 	correction_factor[21] 	0.0027225701061802
scalar geant_cost_network.node[21].content_store 	xi[21] 	1
scalar geant_cost_network.node[22].core_layer 	interests[22] 	336428
scalar geant_cost_network.node[22].core_layer 	repo_load[22] 	336428
scalar geant_cost_network.node[22].core_layer 	data[22] 	0
scalar geant_cost_network.node[22].content_store 	p_hit[22] 	0
scalar geant_cost_network.node[22].content_store 	hits[22] 	0
scalar geant_cost_network.node[22].content_store 	misses[22] 	336428
scalar geant_cost_network.node[22].content_store 	decision_yes[22] 	0
scalar geant_cost_network.node[22].content_store 	decision_no[22] 	336428
scalar geant_cost_network.node[22].content_store 	decision_ratio[22] 	0
scalar geant_cost_network.node[23].core_layer 	interests[23] 	133680
scalar geant_cost_network.node[23].core_layer 	repo_load[23] 	133680
scalar geant_cost_network.node[23].core_layer 	data[23] 	0
scalar geant_cost_network.node[23].content_store 	p_hit[23] 	0
scalar geant_cost_network.node[23].content_store 	hits[23] 	0
scalar geant_cost_network.node[23].content_store 	misses[23] 	133680
scalar geant_cost_network.node[23].content_store 	decision_yes[23] 	0
scalar geant_cost_network.node[23].content_store 	decision_no[23] 	133680
scalar geant_cost_network.node[23].content_store 	decision_ratio[23] 	0
scalar geant_cost_network.node[24].core_layer 	interests[24] 	131228
scalar geant_cost_network.node[24].core_layer 	repo_load[24] 	131228
scalar geant_cost_network.node[24].core_layer 	data[24] 	0
scalar geant_cost_network.node[24].content_store 	p_hit[24] 	0
scalar geant_cost_network.node[24].content_store 	hits[24] 	0
scalar geant_cost_network.node[24].content_store 	misses[24] 	131228
scalar geant_cost_network.node[24].content_store 	decision_yes[24] 	0
scalar geant_cost_network.node[24].content_store 	decision_no[24] 	131228
scalar geant_cost_network.node[24].content_store 	decision_ratio[24] 	0
scalar geant_cost_network.client[5] 	hdistance[5] 	3.5003396796344
scalar geant_cost_network.client[5] 	downloads[5] 	178109
scalar geant_cost_network.client[5] 	avg_time[5] 	0.009609165284
scalar geant_cost_network.client[5] 	interests_sent[5] 	179836
scalar geant_cost_network.client[9] 	hdistance[9] 	3.4446380943366
scalar geant_cost_network.client[9] 	downloads[9] 	179591
scalar geant_cost_network.client[9] 	avg_time[9] 	0.005211818555
scalar geant_cost_network.client[9] 	interests_sent[9] 	180191
scalar geant_cost_network.client[10] 	hdistance[10] 	4.3713269583
scalar geant_cost_network.client[10] 	downloads[10] 	177986
scalar geant_cost_network.client[10] 	avg_time[10] 	0.006997713538
scalar geant_cost_network.client[10] 	interests_sent[10] 	178928
scalar geant_cost_network.client[12] 	hdistance[12] 	3.8145847543862
scalar geant_cost_network.client[12] 	downloads[12] 	178858
scalar geant_cost_network.client[12] 	avg_time[12] 	0.006307082201
scalar geant_cost_network.client[12] 	interests_sent[12] 	179871
scalar geant_cost_network.client[20] 	hdistance[20] 	4.0137793511381
scalar geant_cost_network.client[20] 	downloads[20] 	178528
scalar geant_cost_network.client[20] 	avg_time[20] 	0.007811304825
scalar geant_cost_network.client[20] 	interests_sent[20] 	180265
