version 2
run General-11-20140627-18:01:24-22579
attr D costprobprodcorr0.01
attr F nrr
attr R lru
attr a 1
attr configname General
attr csize 1e3
attr ctlg 1e5
attr datetime 20140627-18:01:24
attr experiment General
attr inifile omnetpp.ini
attr iterationvars "$net=geant_cost, $rep=15, $priceratiovalue=10, $weights=0.333_0.333_0.334, $lambda=100, $a=1, $ctlg=1e5, $F=nrr, $ttl=1000, $D=costprobprodcorr0.01, $xi=1, $R=lru, $csize=1e3, $pricebits=0, $window=60, $variance=0.05, $mytime=1800"
attr iterationvars2 "$net=geant_cost, $rep=15, $priceratiovalue=10, $weights=0.333_0.333_0.334, $lambda=100, $a=1, $ctlg=1e5, $F=nrr, $ttl=1000, $D=costprobprodcorr0.01, $xi=1, $R=lru, $csize=1e3, $pricebits=0, $window=60, $variance=0.05, $mytime=1800, $repetition=0"
attr lambda 100
attr measurement "$net=geant_cost, $rep=15, $priceratiovalue=10, $weights=0.333_0.333_0.334, $lambda=100, $a=1, $ctlg=1e5, $F=nrr, $ttl=1000, $D=costprobprodcorr0.01, $xi=1, $R=lru, $csize=1e3, $pricebits=0, $window=60, $variance=0.05, $mytime=1800"
attr mytime 1800
attr net geant_cost
attr network "networks.${net=geant_cost, abilene_cost}_network"
attr pricebits 0
attr priceratiovalue 10
attr processid 22579
attr rep 15
attr repetition 0
attr replication #0
attr resultdir results
attr runnumber 11
attr seedset 15
attr ttl 1000
attr variance 0.05
attr weights 0.333_0.333_0.334
attr window 60
attr xi 1

scalar . 	a 	1
scalar . 	csize 	1e3
scalar . 	ctlg 	1e5
scalar . 	lambda 	100
scalar . 	mytime 	1800
scalar . 	pricebits 	0
scalar . 	priceratiovalue 	10
scalar . 	rep 	15
scalar . 	ttl 	1000
scalar . 	variance 	0.05
scalar . 	window 	60
scalar . 	xi 	1
scalar geant_cost_network.content_distribution 	repo-0 	22
scalar geant_cost_network.content_distribution 	repo-1 	23
scalar geant_cost_network.content_distribution 	repo-2 	24
scalar geant_cost_network.content_distribution 	client-0 	20
scalar geant_cost_network.content_distribution 	client-1 	10
scalar geant_cost_network.content_distribution 	client-2 	12
scalar geant_cost_network.content_distribution 	client-3 	9
scalar geant_cost_network.content_distribution 	client-4 	5
scalar geant_cost_network.content_distribution 	repo-0_card 	33353
scalar geant_cost_network.content_distribution 	repo-1_card 	33285
scalar geant_cost_network.content_distribution 	repo-2_card 	33362
scalar geant_cost_network.statistics 	repo_popularity[0] 	0.34920511897542
scalar geant_cost_network.statistics 	repo_popularity[1] 	0.27009721586053
scalar geant_cost_network.statistics 	repo_popularity[2] 	0.38069766516405
scalar geant_cost_network.statistics 	stabilization_time 	36060
scalar geant_cost_network.node[7].face$o[4].channel 	price[7] 	0
scalar geant_cost_network.node[7].face$o[4].channel 	represented_price[7] 	0
scalar geant_cost_network.node[8].face$o[3].channel 	price[8] 	0
scalar geant_cost_network.node[8].face$o[3].channel 	represented_price[8] 	0
scalar geant_cost_network.node[21].face$o[5].channel 	price[21] 	0
scalar geant_cost_network.node[21].face$o[5].channel 	represented_price[21] 	0
scalar geant_cost_network.node[22].face$o[1].channel 	price[22] 	0
scalar geant_cost_network.node[22].face$o[1].channel 	represented_price[22] 	0
scalar geant_cost_network.node[23].face$o[1].channel 	price[23] 	1
scalar geant_cost_network.node[23].face$o[1].channel 	represented_price[23] 	1
scalar geant_cost_network.node[24].face$o[1].channel 	price[24] 	10
scalar geant_cost_network.node[24].face$o[1].channel 	represented_price[24] 	10
scalar geant_cost_network.statistics 	p_hit 	0.083435102308646
scalar geant_cost_network.statistics 	interests 	149226.88
scalar geant_cost_network.statistics 	data 	113205.96
scalar geant_cost_network.statistics 	hdistance 	3.8219409321079
scalar geant_cost_network.statistics 	avg_time 	0.006997404282
scalar geant_cost_network.statistics 	downloads 	894608
scalar geant_cost_network.statistics 	total_cost 	1455918
scalar geant_cost_network.statistics 	total_replicas 	100000
scalar geant_cost_network.statistics 	inner_hit 	0.35289311072559
scalar geant_cost_network.statistics 	interests_sent 	900520
scalar geant_cost_network.node[0].core_layer 	interests[0] 	0
scalar geant_cost_network.node[0].core_layer 	data[0] 	0
scalar geant_cost_network.node[0].core_layer 	repo_int[0] 	578907
scalar geant_cost_network.node[0].content_store 	p_hit[0] 	-nan
scalar geant_cost_network.node[0].content_store 	hits[0] 	0
scalar geant_cost_network.node[0].content_store 	misses[0] 	0
scalar geant_cost_network.node[0].content_store 	decision_yes[0] 	0
scalar geant_cost_network.node[0].content_store 	decision_no[0] 	0
scalar geant_cost_network.node[0].content_store 	decision_ratio[0] 	0
scalar geant_cost_network.node[0].content_store 	correction_factor[0] 	0.0027225701061802
scalar geant_cost_network.node[0].content_store 	xi[0] 	1
scalar geant_cost_network.node[1].core_layer 	interests[1] 	0
scalar geant_cost_network.node[1].core_layer 	data[1] 	0
scalar geant_cost_network.node[1].content_store 	p_hit[1] 	-nan
scalar geant_cost_network.node[1].content_store 	hits[1] 	0
scalar geant_cost_network.node[1].content_store 	misses[1] 	0
scalar geant_cost_network.node[1].content_store 	decision_yes[1] 	0
scalar geant_cost_network.node[1].content_store 	decision_no[1] 	0
scalar geant_cost_network.node[1].content_store 	decision_ratio[1] 	0
scalar geant_cost_network.node[1].content_store 	correction_factor[1] 	0.0027225701061802
scalar geant_cost_network.node[1].content_store 	xi[1] 	1
scalar geant_cost_network.node[2].core_layer 	interests[2] 	0
scalar geant_cost_network.node[2].core_layer 	data[2] 	0
scalar geant_cost_network.node[2].content_store 	p_hit[2] 	-nan
scalar geant_cost_network.node[2].content_store 	hits[2] 	0
scalar geant_cost_network.node[2].content_store 	misses[2] 	0
scalar geant_cost_network.node[2].content_store 	decision_yes[2] 	0
scalar geant_cost_network.node[2].content_store 	decision_no[2] 	0
scalar geant_cost_network.node[2].content_store 	decision_ratio[2] 	0
scalar geant_cost_network.node[2].content_store 	correction_factor[2] 	0.0027225701061802
scalar geant_cost_network.node[2].content_store 	xi[2] 	1
scalar geant_cost_network.node[3].core_layer 	interests[3] 	276884
scalar geant_cost_network.node[3].core_layer 	data[3] 	266608
scalar geant_cost_network.node[3].content_store 	p_hit[3] 	0.034462085205357
scalar geant_cost_network.node[3].content_store 	hits[3] 	9542
scalar geant_cost_network.node[3].content_store 	misses[3] 	267342
scalar geant_cost_network.node[3].content_store 	decision_yes[3] 	2149
scalar geant_cost_network.node[3].content_store 	decision_no[3] 	264459
scalar geant_cost_network.node[3].content_store 	decision_ratio[3] 	0.0080605233151293
scalar geant_cost_network.node[3].content_store 	correction_factor[3] 	0.0027225701061802
scalar geant_cost_network.node[3].content_store 	xi[3] 	1
scalar geant_cost_network.node[4].core_layer 	interests[4] 	365095
scalar geant_cost_network.node[4].core_layer 	data[4] 	272102
scalar geant_cost_network.node[4].content_store 	p_hit[4] 	0.25426806721538
scalar geant_cost_network.node[4].content_store 	hits[4] 	92832
scalar geant_cost_network.node[4].content_store 	misses[4] 	272263
scalar geant_cost_network.node[4].content_store 	decision_yes[4] 	2204
scalar geant_cost_network.node[4].content_store 	decision_no[4] 	269898
scalar geant_cost_network.node[4].content_store 	decision_ratio[4] 	0.0080999037125784
scalar geant_cost_network.node[4].content_store 	correction_factor[4] 	0.0027225701061802
scalar geant_cost_network.node[4].content_store 	xi[4] 	1
scalar geant_cost_network.node[5].core_layer 	interests[5] 	199099
scalar geant_cost_network.node[5].core_layer 	data[5] 	181647
scalar geant_cost_network.node[5].content_store 	p_hit[5] 	0.079211849381463
scalar geant_cost_network.node[5].content_store 	hits[5] 	15771
scalar geant_cost_network.node[5].content_store 	misses[5] 	183328
scalar geant_cost_network.node[5].content_store 	decision_yes[5] 	759
scalar geant_cost_network.node[5].content_store 	decision_no[5] 	180888
scalar geant_cost_network.node[5].content_store 	decision_ratio[5] 	0.0041784339956069
scalar geant_cost_network.node[5].content_store 	correction_factor[5] 	0.0027225701061802
scalar geant_cost_network.node[5].content_store 	xi[5] 	1
scalar geant_cost_network.node[6].core_layer 	interests[6] 	112774
scalar geant_cost_network.node[6].core_layer 	data[6] 	96866
scalar geant_cost_network.node[6].content_store 	p_hit[6] 	0.1410520155355
scalar geant_cost_network.node[6].content_store 	hits[6] 	15907
scalar geant_cost_network.node[6].content_store 	misses[6] 	96867
scalar geant_cost_network.node[6].content_store 	decision_yes[6] 	61
scalar geant_cost_network.node[6].content_store 	decision_no[6] 	96805
scalar geant_cost_network.node[6].content_store 	decision_ratio[6] 	0.00062973592385357
scalar geant_cost_network.node[6].content_store 	correction_factor[6] 	0.0027225701061802
scalar geant_cost_network.node[6].content_store 	xi[6] 	1
scalar geant_cost_network.node[7].core_layer 	interests[7] 	404762
scalar geant_cost_network.node[7].core_layer 	data[7] 	386386
scalar geant_cost_network.node[7].content_store 	p_hit[7] 	0.045397048141871
scalar geant_cost_network.node[7].content_store 	hits[7] 	18375
scalar geant_cost_network.node[7].content_store 	misses[7] 	386387
scalar geant_cost_network.node[7].content_store 	decision_yes[7] 	150
scalar geant_cost_network.node[7].content_store 	decision_no[7] 	386236
scalar geant_cost_network.node[7].content_store 	decision_ratio[7] 	0.00038821282344598
scalar geant_cost_network.node[7].content_store 	correction_factor[7] 	0.0027225701061802
scalar geant_cost_network.node[7].content_store 	xi[7] 	1
scalar geant_cost_network.node[8].core_layer 	interests[8] 	301715
scalar geant_cost_network.node[8].core_layer 	data[8] 	278654
scalar geant_cost_network.node[8].content_store 	p_hit[8] 	0.076429743300797
scalar geant_cost_network.node[8].content_store 	hits[8] 	23060
scalar geant_cost_network.node[8].content_store 	misses[8] 	278655
scalar geant_cost_network.node[8].content_store 	decision_yes[8] 	392
scalar geant_cost_network.node[8].content_store 	decision_no[8] 	278262
scalar geant_cost_network.node[8].content_store 	decision_ratio[8] 	0.0014067625083437
scalar geant_cost_network.node[8].content_store 	correction_factor[8] 	0.0027225701061802
scalar geant_cost_network.node[8].content_store 	xi[8] 	1
scalar geant_cost_network.node[9].core_layer 	interests[9] 	413117
scalar geant_cost_network.node[9].core_layer 	data[9] 	370965
scalar geant_cost_network.node[9].content_store 	p_hit[9] 	0.096323801731713
scalar geant_cost_network.node[9].content_store 	hits[9] 	39793
scalar geant_cost_network.node[9].content_store 	misses[9] 	373324
scalar geant_cost_network.node[9].content_store 	decision_yes[9] 	1605
scalar geant_cost_network.node[9].content_store 	decision_no[9] 	369360
scalar geant_cost_network.node[9].content_store 	decision_ratio[9] 	0.0043265537180057
scalar geant_cost_network.node[9].content_store 	correction_factor[9] 	0.0027225701061802
scalar geant_cost_network.node[9].content_store 	xi[9] 	1
scalar geant_cost_network.node[10].core_layer 	interests[10] 	189938
scalar geant_cost_network.node[10].core_layer 	data[10] 	175192
scalar geant_cost_network.node[10].content_store 	p_hit[10] 	0.071375922669503
scalar geant_cost_network.node[10].content_store 	hits[10] 	13557
scalar geant_cost_network.node[10].content_store 	misses[10] 	176381
scalar geant_cost_network.node[10].content_store 	decision_yes[10] 	771
scalar geant_cost_network.node[10].content_store 	decision_no[10] 	174421
scalar geant_cost_network.node[10].content_store 	decision_ratio[10] 	0.0044008858852002
scalar geant_cost_network.node[10].content_store 	correction_factor[10] 	0.0027225701061802
scalar geant_cost_network.node[10].content_store 	xi[10] 	1
scalar geant_cost_network.node[11].core_layer 	interests[11] 	0
scalar geant_cost_network.node[11].core_layer 	data[11] 	0
scalar geant_cost_network.node[11].content_store 	p_hit[11] 	-nan
scalar geant_cost_network.node[11].content_store 	hits[11] 	0
scalar geant_cost_network.node[11].content_store 	misses[11] 	0
scalar geant_cost_network.node[11].content_store 	decision_yes[11] 	0
scalar geant_cost_network.node[11].content_store 	decision_no[11] 	0
scalar geant_cost_network.node[11].content_store 	decision_ratio[11] 	0
scalar geant_cost_network.node[11].content_store 	correction_factor[11] 	0.0027225701061802
scalar geant_cost_network.node[11].content_store 	xi[11] 	1
scalar geant_cost_network.node[12].core_layer 	interests[12] 	322104
scalar geant_cost_network.node[12].core_layer 	data[12] 	296945
scalar geant_cost_network.node[12].content_store 	p_hit[12] 	0.069871842634677
scalar geant_cost_network.node[12].content_store 	hits[12] 	22506
scalar geant_cost_network.node[12].content_store 	misses[12] 	299598
scalar geant_cost_network.node[12].content_store 	decision_yes[12] 	2272
scalar geant_cost_network.node[12].content_store 	decision_no[12] 	294673
scalar geant_cost_network.node[12].content_store 	decision_ratio[12] 	0.0076512485477109
scalar geant_cost_network.node[12].content_store 	correction_factor[12] 	0.0027225701061802
scalar geant_cost_network.node[12].content_store 	xi[12] 	1
scalar geant_cost_network.node[13].core_layer 	interests[13] 	6389
scalar geant_cost_network.node[13].core_layer 	data[13] 	6389
scalar geant_cost_network.node[13].content_store 	p_hit[13] 	0
scalar geant_cost_network.node[13].content_store 	hits[13] 	0
scalar geant_cost_network.node[13].content_store 	misses[13] 	6389
scalar geant_cost_network.node[13].content_store 	decision_yes[13] 	0
scalar geant_cost_network.node[13].content_store 	decision_no[13] 	6389
scalar geant_cost_network.node[13].content_store 	decision_ratio[13] 	0
scalar geant_cost_network.node[13].content_store 	correction_factor[13] 	0.0027225701061802
scalar geant_cost_network.node[13].content_store 	xi[13] 	1
scalar geant_cost_network.node[14].core_layer 	interests[14] 	55429
scalar geant_cost_network.node[14].core_layer 	data[14] 	44725
scalar geant_cost_network.node[14].content_store 	p_hit[14] 	0.19311190892854
scalar geant_cost_network.node[14].content_store 	hits[14] 	10704
scalar geant_cost_network.node[14].content_store 	misses[14] 	44725
scalar geant_cost_network.node[14].content_store 	decision_yes[14] 	732
scalar geant_cost_network.node[14].content_store 	decision_no[14] 	43993
scalar geant_cost_network.node[14].content_store 	decision_ratio[14] 	0.01636668529905
scalar geant_cost_network.node[14].content_store 	correction_factor[14] 	0.0027225701061802
scalar geant_cost_network.node[14].content_store 	xi[14] 	1
scalar geant_cost_network.node[15].core_layer 	interests[15] 	0
scalar geant_cost_network.node[15].core_layer 	data[15] 	0
scalar geant_cost_network.node[15].content_store 	p_hit[15] 	-nan
scalar geant_cost_network.node[15].content_store 	hits[15] 	0
scalar geant_cost_network.node[15].content_store 	misses[15] 	0
scalar geant_cost_network.node[15].content_store 	decision_yes[15] 	0
scalar geant_cost_network.node[15].content_store 	decision_no[15] 	0
scalar geant_cost_network.node[15].content_store 	decision_ratio[15] 	0
scalar geant_cost_network.node[15].content_store 	correction_factor[15] 	0.0027225701061802
scalar geant_cost_network.node[15].content_store 	xi[15] 	1
scalar geant_cost_network.node[16].core_layer 	interests[16] 	0
scalar geant_cost_network.node[16].core_layer 	data[16] 	0
scalar geant_cost_network.node[16].content_store 	p_hit[16] 	-nan
scalar geant_cost_network.node[16].content_store 	hits[16] 	0
scalar geant_cost_network.node[16].content_store 	misses[16] 	0
scalar geant_cost_network.node[16].content_store 	decision_yes[16] 	0
scalar geant_cost_network.node[16].content_store 	decision_no[16] 	0
scalar geant_cost_network.node[16].content_store 	decision_ratio[16] 	0
scalar geant_cost_network.node[16].content_store 	correction_factor[16] 	0.0027225701061802
scalar geant_cost_network.node[16].content_store 	xi[16] 	1
scalar geant_cost_network.node[17].core_layer 	interests[17] 	0
scalar geant_cost_network.node[17].core_layer 	data[17] 	0
scalar geant_cost_network.node[17].content_store 	p_hit[17] 	-nan
scalar geant_cost_network.node[17].content_store 	hits[17] 	0
scalar geant_cost_network.node[17].content_store 	misses[17] 	0
scalar geant_cost_network.node[17].content_store 	decision_yes[17] 	0
scalar geant_cost_network.node[17].content_store 	decision_no[17] 	0
scalar geant_cost_network.node[17].content_store 	decision_ratio[17] 	0
scalar geant_cost_network.node[17].content_store 	correction_factor[17] 	0.0027225701061802
scalar geant_cost_network.node[17].content_store 	xi[17] 	1
scalar geant_cost_network.node[18].core_layer 	interests[18] 	158241
scalar geant_cost_network.node[18].core_layer 	data[18] 	152741
scalar geant_cost_network.node[18].content_store 	p_hit[18] 	0.034567526747177
scalar geant_cost_network.node[18].content_store 	hits[18] 	5470
scalar geant_cost_network.node[18].content_store 	misses[18] 	152771
scalar geant_cost_network.node[18].content_store 	decision_yes[18] 	67
scalar geant_cost_network.node[18].content_store 	decision_no[18] 	152674
scalar geant_cost_network.node[18].content_store 	decision_ratio[18] 	0.00043865104981636
scalar geant_cost_network.node[18].content_store 	correction_factor[18] 	0.0027225701061802
scalar geant_cost_network.node[18].content_store 	xi[18] 	1
scalar geant_cost_network.node[19].core_layer 	interests[19] 	0
scalar geant_cost_network.node[19].core_layer 	data[19] 	0
scalar geant_cost_network.node[19].content_store 	p_hit[19] 	-nan
scalar geant_cost_network.node[19].content_store 	hits[19] 	0
scalar geant_cost_network.node[19].content_store 	misses[19] 	0
scalar geant_cost_network.node[19].content_store 	decision_yes[19] 	0
scalar geant_cost_network.node[19].content_store 	decision_no[19] 	0
scalar geant_cost_network.node[19].content_store 	decision_ratio[19] 	0
scalar geant_cost_network.node[19].content_store 	correction_factor[19] 	0.0027225701061802
scalar geant_cost_network.node[19].content_store 	xi[19] 	1
scalar geant_cost_network.node[20].core_layer 	interests[20] 	198539
scalar geant_cost_network.node[20].core_layer 	data[20] 	168735
scalar geant_cost_network.node[20].content_store 	p_hit[20] 	0.14237504973834
scalar geant_cost_network.node[20].content_store 	hits[20] 	28267
scalar geant_cost_network.node[20].content_store 	misses[20] 	170272
scalar geant_cost_network.node[20].content_store 	decision_yes[20] 	847
scalar geant_cost_network.node[20].content_store 	decision_no[20] 	167888
scalar geant_cost_network.node[20].content_store 	decision_ratio[20] 	0.0050197054552997
scalar geant_cost_network.node[20].content_store 	correction_factor[20] 	0.0027225701061802
scalar geant_cost_network.node[20].content_store 	xi[20] 	1
scalar geant_cost_network.node[21].core_layer 	interests[21] 	147679
scalar geant_cost_network.node[21].core_layer 	data[21] 	132194
scalar geant_cost_network.node[21].content_store 	p_hit[21] 	0.10485580211134
scalar geant_cost_network.node[21].content_store 	hits[21] 	15485
scalar geant_cost_network.node[21].content_store 	misses[21] 	132194
scalar geant_cost_network.node[21].content_store 	decision_yes[21] 	3542
scalar geant_cost_network.node[21].content_store 	decision_no[21] 	128652
scalar geant_cost_network.node[21].content_store 	decision_ratio[21] 	0.026793954339834
scalar geant_cost_network.node[21].content_store 	correction_factor[21] 	0.0027225701061802
scalar geant_cost_network.node[21].content_store 	xi[21] 	1
scalar geant_cost_network.node[22].core_layer 	interests[22] 	312735
scalar geant_cost_network.node[22].core_layer 	repo_load[22] 	312735
scalar geant_cost_network.node[22].core_layer 	data[22] 	0
scalar geant_cost_network.node[22].content_store 	p_hit[22] 	0
scalar geant_cost_network.node[22].content_store 	hits[22] 	0
scalar geant_cost_network.node[22].content_store 	misses[22] 	312735
scalar geant_cost_network.node[22].content_store 	decision_yes[22] 	0
scalar geant_cost_network.node[22].content_store 	decision_no[22] 	312735
scalar geant_cost_network.node[22].content_store 	decision_ratio[22] 	0
scalar geant_cost_network.node[23].core_layer 	interests[23] 	133978
scalar geant_cost_network.node[23].core_layer 	repo_load[23] 	133978
scalar geant_cost_network.node[23].core_layer 	data[23] 	0
scalar geant_cost_network.node[23].content_store 	p_hit[23] 	0
scalar geant_cost_network.node[23].content_store 	hits[23] 	0
scalar geant_cost_network.node[23].content_store 	misses[23] 	133978
scalar geant_cost_network.node[23].content_store 	decision_yes[23] 	0
scalar geant_cost_network.node[23].content_store 	decision_no[23] 	133978
scalar geant_cost_network.node[23].content_store 	decision_ratio[23] 	0
scalar geant_cost_network.node[24].core_layer 	interests[24] 	132194
scalar geant_cost_network.node[24].core_layer 	repo_load[24] 	132194
scalar geant_cost_network.node[24].core_layer 	data[24] 	0
scalar geant_cost_network.node[24].content_store 	p_hit[24] 	0
scalar geant_cost_network.node[24].content_store 	hits[24] 	0
scalar geant_cost_network.node[24].content_store 	misses[24] 	132194
scalar geant_cost_network.node[24].content_store 	decision_yes[24] 	0
scalar geant_cost_network.node[24].content_store 	decision_no[24] 	132194
scalar geant_cost_network.node[24].content_store 	decision_ratio[24] 	0
scalar geant_cost_network.client[5] 	hdistance[5] 	3.4673447657476
scalar geant_cost_network.client[5] 	downloads[5] 	178440
scalar geant_cost_network.client[5] 	avg_time[5] 	0.009552769029
scalar geant_cost_network.client[5] 	interests_sent[5] 	180099
scalar geant_cost_network.client[9] 	hdistance[9] 	3.5047193299503
scalar geant_cost_network.client[9] 	downloads[9] 	178733
scalar geant_cost_network.client[9] 	avg_time[9] 	0.00493423954
scalar geant_cost_network.client[9] 	interests_sent[9] 	179539
scalar geant_cost_network.client[10] 	hdistance[10] 	4.4669366325021
scalar geant_cost_network.client[10] 	downloads[10] 	179035
scalar geant_cost_network.client[10] 	avg_time[10] 	0.006848721394
scalar geant_cost_network.client[10] 	interests_sent[10] 	180224
scalar geant_cost_network.client[12] 	hdistance[12] 	3.7655027964081
scalar geant_cost_network.client[12] 	downloads[12] 	179516
scalar geant_cost_network.client[12] 	avg_time[12] 	0.005876054225
scalar geant_cost_network.client[12] 	interests_sent[12] 	180237
scalar geant_cost_network.client[20] 	hdistance[20] 	3.9052011359317
scalar geant_cost_network.client[20] 	downloads[20] 	178884
scalar geant_cost_network.client[20] 	avg_time[20] 	0.007775237222
scalar geant_cost_network.client[20] 	interests_sent[20] 	180421
