version 2
run General-384-20140502-10:38:36-13598
attr D costprob0.1
attr F nrr
attr R lru
attr a 1.2
attr configname General
attr csize 1e3
attr ctlg 1e5
attr datetime 20140502-10:38:36
attr experiment General
attr inifile omnetpp.ini
attr iterationvars "$net=three_caches_scenario_3_links, $rep=3, $priceratiovalue=5, $weights=0.333_0.333_0.334, $a=1.2, $ctlg=1e5, $F=nrr, $ttl=1000, $D=costprob0.1, $xi=1, $R=lru, $csize=1e3"
attr iterationvars2 "$net=three_caches_scenario_3_links, $rep=3, $priceratiovalue=5, $weights=0.333_0.333_0.334, $a=1.2, $ctlg=1e5, $F=nrr, $ttl=1000, $D=costprob0.1, $xi=1, $R=lru, $csize=1e3, $repetition=0"
attr measurement "$net=three_caches_scenario_3_links, $rep=3, $priceratiovalue=5, $weights=0.333_0.333_0.334, $a=1.2, $ctlg=1e5, $F=nrr, $ttl=1000, $D=costprob0.1, $xi=1, $R=lru, $csize=1e3"
attr net three_caches_scenario_3_links
attr network networks.${net=three_caches_scenario_3_links}_network
attr priceratiovalue 5
attr processid 13598
attr rep 3
attr repetition 0
attr replication #0
attr resultdir results
attr runnumber 384
attr seedset 3
attr ttl 1000
attr weights 0.333_0.333_0.334
attr xi 1

scalar . 	a 	1.2
scalar . 	csize 	1e3
scalar . 	ctlg 	1e5
scalar . 	priceratiovalue 	5
scalar . 	rep 	3
scalar . 	ttl 	1000
scalar . 	xi 	1
scalar three_caches_scenario_3_links_network.content_distribution 	repo-0 	4
scalar three_caches_scenario_3_links_network.content_distribution 	repo-1 	5
scalar three_caches_scenario_3_links_network.content_distribution 	repo-2 	6
scalar three_caches_scenario_3_links_network.content_distribution 	client-0 	0
scalar three_caches_scenario_3_links_network.content_distribution 	repo-0_card 	33329
scalar three_caches_scenario_3_links_network.content_distribution 	repo-1_card 	33051
scalar three_caches_scenario_3_links_network.content_distribution 	repo-2_card 	33620
scalar three_caches_scenario_3_links_network.statistics 	p_hit 	0.15649306499864
scalar three_caches_scenario_3_links_network.statistics 	interests 	63034.285714286
scalar three_caches_scenario_3_links_network.statistics 	data 	37302.285714286
scalar three_caches_scenario_3_links_network.statistics 	hdistance 	1.5624458706224
scalar three_caches_scenario_3_links_network.statistics 	avg_time 	0
scalar three_caches_scenario_3_links_network.statistics 	downloads 	180124
scalar three_caches_scenario_3_links_network.statistics 	total_cost 	60714
scalar three_caches_scenario_3_links_network.statistics 	total_replicas 	100000
scalar three_caches_scenario_3_links_network.statistics 	interests_sent 	180124
scalar three_caches_scenario_3_links_network.node[0].core_layer 	interests[0] 	180124
scalar three_caches_scenario_3_links_network.node[0].core_layer 	data[0] 	150043
scalar three_caches_scenario_3_links_network.node[0].core_layer 	repo_int[0] 	111073
scalar three_caches_scenario_3_links_network.node[0].content_store 	p_hit[0] 	0.16700162110546
scalar three_caches_scenario_3_links_network.node[0].content_store 	hits[0] 	30081
scalar three_caches_scenario_3_links_network.node[0].content_store 	misses[0] 	150043
scalar three_caches_scenario_3_links_network.node[0].content_store 	decision_yes[0] 	3070
scalar three_caches_scenario_3_links_network.node[0].content_store 	decision_no[0] 	146973
scalar three_caches_scenario_3_links_network.node[1].core_layer 	interests[1] 	90755
scalar three_caches_scenario_3_links_network.node[1].core_layer 	data[1] 	90755
scalar three_caches_scenario_3_links_network.node[1].content_store 	p_hit[1] 	0
scalar three_caches_scenario_3_links_network.node[1].content_store 	hits[1] 	0
scalar three_caches_scenario_3_links_network.node[1].content_store 	misses[1] 	90755
scalar three_caches_scenario_3_links_network.node[1].content_store 	decision_yes[1] 	0
scalar three_caches_scenario_3_links_network.node[1].content_store 	decision_no[1] 	90755
scalar three_caches_scenario_3_links_network.node[2].core_layer 	interests[2] 	27440
scalar three_caches_scenario_3_links_network.node[2].core_layer 	data[2] 	10219
scalar three_caches_scenario_3_links_network.node[2].content_store 	p_hit[2] 	0.62758746355685
scalar three_caches_scenario_3_links_network.node[2].content_store 	hits[2] 	17221
scalar three_caches_scenario_3_links_network.node[2].content_store 	misses[2] 	10219
scalar three_caches_scenario_3_links_network.node[2].content_store 	decision_yes[2] 	477
scalar three_caches_scenario_3_links_network.node[2].content_store 	decision_no[2] 	9742
scalar three_caches_scenario_3_links_network.node[3].core_layer 	interests[3] 	31848
scalar three_caches_scenario_3_links_network.node[3].core_layer 	data[3] 	10099
scalar three_caches_scenario_3_links_network.node[3].content_store 	p_hit[3] 	0.68290002511932
scalar three_caches_scenario_3_links_network.node[3].content_store 	hits[3] 	21749
scalar three_caches_scenario_3_links_network.node[3].content_store 	misses[3] 	10099
scalar three_caches_scenario_3_links_network.node[3].content_store 	decision_yes[3] 	2544
scalar three_caches_scenario_3_links_network.node[3].content_store 	decision_no[3] 	7555
scalar three_caches_scenario_3_links_network.node[4].core_layer 	interests[4] 	90755
scalar three_caches_scenario_3_links_network.node[4].core_layer 	repo_load[4] 	90755
scalar three_caches_scenario_3_links_network.node[4].core_layer 	data[4] 	0
scalar three_caches_scenario_3_links_network.node[4].content_store 	p_hit[4] 	0
scalar three_caches_scenario_3_links_network.node[4].content_store 	hits[4] 	0
scalar three_caches_scenario_3_links_network.node[4].content_store 	misses[4] 	90755
scalar three_caches_scenario_3_links_network.node[4].content_store 	decision_yes[4] 	0
scalar three_caches_scenario_3_links_network.node[4].content_store 	decision_no[4] 	90755
scalar three_caches_scenario_3_links_network.node[5].core_layer 	interests[5] 	10219
scalar three_caches_scenario_3_links_network.node[5].core_layer 	repo_load[5] 	10219
scalar three_caches_scenario_3_links_network.node[5].core_layer 	data[5] 	0
scalar three_caches_scenario_3_links_network.node[5].content_store 	p_hit[5] 	0
scalar three_caches_scenario_3_links_network.node[5].content_store 	hits[5] 	0
scalar three_caches_scenario_3_links_network.node[5].content_store 	misses[5] 	10219
scalar three_caches_scenario_3_links_network.node[5].content_store 	decision_yes[5] 	0
scalar three_caches_scenario_3_links_network.node[5].content_store 	decision_no[5] 	10219
scalar three_caches_scenario_3_links_network.node[6].core_layer 	interests[6] 	10099
scalar three_caches_scenario_3_links_network.node[6].core_layer 	repo_load[6] 	10099
scalar three_caches_scenario_3_links_network.node[6].core_layer 	data[6] 	0
scalar three_caches_scenario_3_links_network.node[6].content_store 	p_hit[6] 	0
scalar three_caches_scenario_3_links_network.node[6].content_store 	hits[6] 	0
scalar three_caches_scenario_3_links_network.node[6].content_store 	misses[6] 	10099
scalar three_caches_scenario_3_links_network.node[6].content_store 	decision_yes[6] 	0
scalar three_caches_scenario_3_links_network.node[6].content_store 	decision_no[6] 	10099
scalar three_caches_scenario_3_links_network.client[0] 	hdistance[0] 	1.5624458706224
scalar three_caches_scenario_3_links_network.client[0] 	downloads[0] 	180124
scalar three_caches_scenario_3_links_network.client[0] 	avg_time[0] 	0
scalar three_caches_scenario_3_links_network.client[0] 	interests_sent[0] 	180124
