version 2
run General-528-20140502-13:25:21-16100
attr D costprob0.1
attr F nrr
attr R lru
attr a 1.2
attr configname General
attr csize 1e3
attr ctlg 1e5
attr datetime 20140502-13:25:21
attr experiment General
attr inifile omnetpp.ini
attr iterationvars "$net=three_caches_scenario_3_links, $rep=4, $priceratiovalue=5, $weights=0.333_0.333_0.334, $a=1.2, $ctlg=1e5, $F=nrr, $ttl=1000, $D=costprob0.1, $xi=1, $R=lru, $csize=1e3"
attr iterationvars2 "$net=three_caches_scenario_3_links, $rep=4, $priceratiovalue=5, $weights=0.333_0.333_0.334, $a=1.2, $ctlg=1e5, $F=nrr, $ttl=1000, $D=costprob0.1, $xi=1, $R=lru, $csize=1e3, $repetition=0"
attr measurement "$net=three_caches_scenario_3_links, $rep=4, $priceratiovalue=5, $weights=0.333_0.333_0.334, $a=1.2, $ctlg=1e5, $F=nrr, $ttl=1000, $D=costprob0.1, $xi=1, $R=lru, $csize=1e3"
attr net three_caches_scenario_3_links
attr network networks.${net=three_caches_scenario_3_links}_network
attr priceratiovalue 5
attr processid 16100
attr rep 4
attr repetition 0
attr replication #0
attr resultdir results
attr runnumber 528
attr seedset 4
attr ttl 1000
attr weights 0.333_0.333_0.334
attr xi 1

scalar . 	a 	1.2
scalar . 	csize 	1e3
scalar . 	ctlg 	1e5
scalar . 	priceratiovalue 	5
scalar . 	rep 	4
scalar . 	ttl 	1000
scalar . 	xi 	1
scalar three_caches_scenario_3_links_network.content_distribution 	repo-0 	4
scalar three_caches_scenario_3_links_network.content_distribution 	repo-1 	5
scalar three_caches_scenario_3_links_network.content_distribution 	repo-2 	6
scalar three_caches_scenario_3_links_network.content_distribution 	client-0 	0
scalar three_caches_scenario_3_links_network.content_distribution 	repo-0_card 	33584
scalar three_caches_scenario_3_links_network.content_distribution 	repo-1_card 	33055
scalar three_caches_scenario_3_links_network.content_distribution 	repo-2_card 	33361
scalar three_caches_scenario_3_links_network.statistics 	p_hit 	0.18174065677921
scalar three_caches_scenario_3_links_network.statistics 	interests 	60307.285714286
scalar three_caches_scenario_3_links_network.statistics 	data 	34590.285714286
scalar three_caches_scenario_3_links_network.statistics 	hdistance 	1.4573239491387
scalar three_caches_scenario_3_links_network.statistics 	avg_time 	0
scalar three_caches_scenario_3_links_network.statistics 	downloads 	180019
scalar three_caches_scenario_3_links_network.statistics 	total_cost 	60702
scalar three_caches_scenario_3_links_network.statistics 	total_replicas 	100000
scalar three_caches_scenario_3_links_network.statistics 	interests_sent 	180019
scalar three_caches_scenario_3_links_network.node[0].core_layer 	interests[0] 	180019
scalar three_caches_scenario_3_links_network.node[0].core_layer 	data[0] 	138835
scalar three_caches_scenario_3_links_network.node[0].core_layer 	repo_int[0] 	103297
scalar three_caches_scenario_3_links_network.node[0].content_store 	p_hit[0] 	0.2287758514379
scalar three_caches_scenario_3_links_network.node[0].content_store 	hits[0] 	41184
scalar three_caches_scenario_3_links_network.node[0].content_store 	misses[0] 	138835
scalar three_caches_scenario_3_links_network.node[0].content_store 	decision_yes[0] 	3127
scalar three_caches_scenario_3_links_network.node[0].content_store 	decision_no[0] 	135708
scalar three_caches_scenario_3_links_network.node[1].core_layer 	interests[1] 	83083
scalar three_caches_scenario_3_links_network.node[1].core_layer 	data[1] 	83083
scalar three_caches_scenario_3_links_network.node[1].content_store 	p_hit[1] 	0
scalar three_caches_scenario_3_links_network.node[1].content_store 	hits[1] 	0
scalar three_caches_scenario_3_links_network.node[1].content_store 	misses[1] 	83083
scalar three_caches_scenario_3_links_network.node[1].content_store 	decision_yes[1] 	0
scalar three_caches_scenario_3_links_network.node[1].content_store 	decision_no[1] 	83083
scalar three_caches_scenario_3_links_network.node[2].core_layer 	interests[2] 	37773
scalar three_caches_scenario_3_links_network.node[2].core_layer 	data[2] 	10092
scalar three_caches_scenario_3_links_network.node[2].content_store 	p_hit[2] 	0.73282503375427
scalar three_caches_scenario_3_links_network.node[2].content_store 	hits[2] 	27681
scalar three_caches_scenario_3_links_network.node[2].content_store 	misses[2] 	10092
scalar three_caches_scenario_3_links_network.node[2].content_store 	decision_yes[2] 	499
scalar three_caches_scenario_3_links_network.node[2].content_store 	decision_no[2] 	9593
scalar three_caches_scenario_3_links_network.node[3].core_layer 	interests[3] 	17979
scalar three_caches_scenario_3_links_network.node[3].core_layer 	data[3] 	10122
scalar three_caches_scenario_3_links_network.node[3].content_store 	p_hit[3] 	0.43700984481896
scalar three_caches_scenario_3_links_network.node[3].content_store 	hits[3] 	7857
scalar three_caches_scenario_3_links_network.node[3].content_store 	misses[3] 	10122
scalar three_caches_scenario_3_links_network.node[3].content_store 	decision_yes[3] 	2504
scalar three_caches_scenario_3_links_network.node[3].content_store 	decision_no[3] 	7618
scalar three_caches_scenario_3_links_network.node[4].core_layer 	interests[4] 	83083
scalar three_caches_scenario_3_links_network.node[4].core_layer 	repo_load[4] 	83083
scalar three_caches_scenario_3_links_network.node[4].core_layer 	data[4] 	0
scalar three_caches_scenario_3_links_network.node[4].content_store 	p_hit[4] 	0
scalar three_caches_scenario_3_links_network.node[4].content_store 	hits[4] 	0
scalar three_caches_scenario_3_links_network.node[4].content_store 	misses[4] 	83083
scalar three_caches_scenario_3_links_network.node[4].content_store 	decision_yes[4] 	0
scalar three_caches_scenario_3_links_network.node[4].content_store 	decision_no[4] 	83083
scalar three_caches_scenario_3_links_network.node[5].core_layer 	interests[5] 	10092
scalar three_caches_scenario_3_links_network.node[5].core_layer 	repo_load[5] 	10092
scalar three_caches_scenario_3_links_network.node[5].core_layer 	data[5] 	0
scalar three_caches_scenario_3_links_network.node[5].content_store 	p_hit[5] 	0
scalar three_caches_scenario_3_links_network.node[5].content_store 	hits[5] 	0
scalar three_caches_scenario_3_links_network.node[5].content_store 	misses[5] 	10092
scalar three_caches_scenario_3_links_network.node[5].content_store 	decision_yes[5] 	0
scalar three_caches_scenario_3_links_network.node[5].content_store 	decision_no[5] 	10092
scalar three_caches_scenario_3_links_network.node[6].core_layer 	interests[6] 	10122
scalar three_caches_scenario_3_links_network.node[6].core_layer 	repo_load[6] 	10122
scalar three_caches_scenario_3_links_network.node[6].core_layer 	data[6] 	0
scalar three_caches_scenario_3_links_network.node[6].content_store 	p_hit[6] 	0
scalar three_caches_scenario_3_links_network.node[6].content_store 	hits[6] 	0
scalar three_caches_scenario_3_links_network.node[6].content_store 	misses[6] 	10122
scalar three_caches_scenario_3_links_network.node[6].content_store 	decision_yes[6] 	0
scalar three_caches_scenario_3_links_network.node[6].content_store 	decision_no[6] 	10122
scalar three_caches_scenario_3_links_network.client[0] 	hdistance[0] 	1.4573239491387
scalar three_caches_scenario_3_links_network.client[0] 	downloads[0] 	180019
scalar three_caches_scenario_3_links_network.client[0] 	avg_time[0] 	0
scalar three_caches_scenario_3_links_network.client[0] 	interests_sent[0] 	180019
