version 2
run General-0-20140623-15:19:06-3707
attr D lce
attr F nrr
attr R lru
attr a 1
attr configname General
attr csize 5
attr ctlg 1e3
attr datetime 20140623-15:19:06
attr experiment General
attr inifile omnetpp.ini
attr iterationvars "$net=abilene, $rep=1, $priceratiovalue=10, $weights=0.333_0.333_0.334, $lambda=1, $a=1, $ctlg=1e3, $F=nrr, $ttl=1000, $D=lce, $xi=1, $R=lru, $csize=5, $pricebits=0, $mytime=1800"
attr iterationvars2 "$net=abilene, $rep=1, $priceratiovalue=10, $weights=0.333_0.333_0.334, $lambda=1, $a=1, $ctlg=1e3, $F=nrr, $ttl=1000, $D=lce, $xi=1, $R=lru, $csize=5, $pricebits=0, $mytime=1800, $repetition=0"
attr lambda 1
attr measurement "$net=abilene, $rep=1, $priceratiovalue=10, $weights=0.333_0.333_0.334, $lambda=1, $a=1, $ctlg=1e3, $F=nrr, $ttl=1000, $D=lce, $xi=1, $R=lru, $csize=5, $pricebits=0, $mytime=1800"
attr mytime 1800
attr net abilene
attr network networks.${net=abilene}_network
attr pricebits 0
attr priceratiovalue 10
attr processid 3707
attr rep 1
attr repetition 0
attr replication #0
attr resultdir results
attr runnumber 0
attr seedset 1
attr ttl 1000
attr weights 0.333_0.333_0.334
attr xi 1

scalar . 	a 	1
scalar . 	csize 	5
scalar . 	ctlg 	1e3
scalar . 	lambda 	1
scalar . 	mytime 	1800
scalar . 	pricebits 	0
scalar . 	priceratiovalue 	10
scalar . 	rep 	1
scalar . 	ttl 	1000
scalar . 	xi 	1
scalar abilene_network.content_distribution 	repo-0 	0
scalar abilene_network.content_distribution 	repo-1 	1
scalar abilene_network.content_distribution 	repo-2 	2
scalar abilene_network.content_distribution 	repo-3 	3
scalar abilene_network.content_distribution 	repo-4 	4
scalar abilene_network.content_distribution 	repo-5 	5
scalar abilene_network.content_distribution 	repo-6 	6
scalar abilene_network.content_distribution 	repo-7 	7
scalar abilene_network.content_distribution 	repo-8 	8
scalar abilene_network.content_distribution 	repo-9 	9
scalar abilene_network.content_distribution 	repo-10 	10
scalar abilene_network.content_distribution 	client-0 	0
scalar abilene_network.content_distribution 	client-1 	1
scalar abilene_network.content_distribution 	client-2 	2
scalar abilene_network.content_distribution 	client-3 	3
scalar abilene_network.content_distribution 	client-4 	4
scalar abilene_network.content_distribution 	client-5 	5
scalar abilene_network.content_distribution 	client-6 	6
scalar abilene_network.content_distribution 	client-7 	7
scalar abilene_network.content_distribution 	client-8 	8
scalar abilene_network.content_distribution 	client-9 	9
scalar abilene_network.content_distribution 	client-10 	10
scalar abilene_network.content_distribution 	repo-0_card 	97
scalar abilene_network.content_distribution 	repo-1_card 	81
scalar abilene_network.content_distribution 	repo-2_card 	89
scalar abilene_network.content_distribution 	repo-3_card 	86
scalar abilene_network.content_distribution 	repo-4_card 	82
scalar abilene_network.content_distribution 	repo-5_card 	99
scalar abilene_network.content_distribution 	repo-6_card 	82
scalar abilene_network.content_distribution 	repo-7_card 	109
scalar abilene_network.content_distribution 	repo-8_card 	87
scalar abilene_network.content_distribution 	repo-9_card 	101
scalar abilene_network.content_distribution 	repo-10_card 	87
scalar abilene_network.statistics 	stabilization_time 	236.5
scalar abilene_network.statistics 	p_hit 	0.40841651666394
scalar abilene_network.statistics 	interests 	3333.2727272727
scalar abilene_network.statistics 	data 	1534.7272727273
scalar abilene_network.statistics 	hdistance 	1.0958985328469
scalar abilene_network.statistics 	avg_time 	0.005519105257
scalar abilene_network.statistics 	downloads 	19784
scalar abilene_network.statistics 	total_cost 	0
scalar abilene_network.statistics 	total_replicas 	1000
scalar abilene_network.statistics 	inner_hit 	0.75692478770724
scalar abilene_network.statistics 	interests_sent 	19784
scalar abilene_network.node[0].core_layer 	interests[0] 	2565
scalar abilene_network.node[0].core_layer 	repo_load[0] 	394
scalar abilene_network.node[0].core_layer 	data[0] 	759
scalar abilene_network.node[0].core_layer 	repo_int[0] 	4809
scalar abilene_network.node[0].content_store 	p_hit[0] 	0.5504873294347
scalar abilene_network.node[0].content_store 	hits[0] 	1412
scalar abilene_network.node[0].content_store 	misses[0] 	1153
scalar abilene_network.node[0].content_store 	decision_yes[0] 	1153
scalar abilene_network.node[0].content_store 	decision_no[0] 	0
scalar abilene_network.node[0].content_store 	decision_ratio[0] 	1
scalar abilene_network.node[1].core_layer 	interests[1] 	3602
scalar abilene_network.node[1].core_layer 	repo_load[1] 	392
scalar abilene_network.node[1].core_layer 	data[1] 	1930
scalar abilene_network.node[1].content_store 	p_hit[1] 	0.35535813436979
scalar abilene_network.node[1].content_store 	hits[1] 	1280
scalar abilene_network.node[1].content_store 	misses[1] 	2322
scalar abilene_network.node[1].content_store 	decision_yes[1] 	2322
scalar abilene_network.node[1].content_store 	decision_no[1] 	0
scalar abilene_network.node[1].content_store 	decision_ratio[1] 	1
scalar abilene_network.node[2].core_layer 	interests[2] 	4437
scalar abilene_network.node[2].core_layer 	repo_load[2] 	464
scalar abilene_network.node[2].core_layer 	data[2] 	2666
scalar abilene_network.node[2].content_store 	p_hit[2] 	0.29456840207347
scalar abilene_network.node[2].content_store 	hits[2] 	1307
scalar abilene_network.node[2].content_store 	misses[2] 	3130
scalar abilene_network.node[2].content_store 	decision_yes[2] 	3130
scalar abilene_network.node[2].content_store 	decision_no[2] 	0
scalar abilene_network.node[2].content_store 	decision_ratio[2] 	1
scalar abilene_network.node[3].core_layer 	interests[3] 	4343
scalar abilene_network.node[3].core_layer 	repo_load[3] 	463
scalar abilene_network.node[3].core_layer 	data[3] 	2526
scalar abilene_network.node[3].content_store 	p_hit[3] 	0.31176606032696
scalar abilene_network.node[3].content_store 	hits[3] 	1354
scalar abilene_network.node[3].content_store 	misses[3] 	2989
scalar abilene_network.node[3].content_store 	decision_yes[3] 	2989
scalar abilene_network.node[3].content_store 	decision_no[3] 	0
scalar abilene_network.node[3].content_store 	decision_ratio[3] 	1
scalar abilene_network.node[4].core_layer 	interests[4] 	3015
scalar abilene_network.node[4].core_layer 	repo_load[4] 	369
scalar abilene_network.node[4].core_layer 	data[4] 	1348
scalar abilene_network.node[4].content_store 	p_hit[4] 	0.43051409618574
scalar abilene_network.node[4].content_store 	hits[4] 	1298
scalar abilene_network.node[4].content_store 	misses[4] 	1717
scalar abilene_network.node[4].content_store 	decision_yes[4] 	1717
scalar abilene_network.node[4].content_store 	decision_no[4] 	0
scalar abilene_network.node[4].content_store 	decision_ratio[4] 	1
scalar abilene_network.node[5].core_layer 	interests[5] 	2640
scalar abilene_network.node[5].core_layer 	repo_load[5] 	414
scalar abilene_network.node[5].core_layer 	data[5] 	897
scalar abilene_network.node[5].content_store 	p_hit[5] 	0.50340909090909
scalar abilene_network.node[5].content_store 	hits[5] 	1329
scalar abilene_network.node[5].content_store 	misses[5] 	1311
scalar abilene_network.node[5].content_store 	decision_yes[5] 	1311
scalar abilene_network.node[5].content_store 	decision_no[5] 	0
scalar abilene_network.node[5].content_store 	decision_ratio[5] 	1
scalar abilene_network.node[6].core_layer 	interests[6] 	2887
scalar abilene_network.node[6].core_layer 	repo_load[6] 	403
scalar abilene_network.node[6].core_layer 	data[6] 	1147
scalar abilene_network.node[6].content_store 	p_hit[6] 	0.46311049532387
scalar abilene_network.node[6].content_store 	hits[6] 	1337
scalar abilene_network.node[6].content_store 	misses[6] 	1550
scalar abilene_network.node[6].content_store 	decision_yes[6] 	1550
scalar abilene_network.node[6].content_store 	decision_no[6] 	0
scalar abilene_network.node[6].content_store 	decision_ratio[6] 	1
scalar abilene_network.node[7].core_layer 	interests[7] 	3699
scalar abilene_network.node[7].core_layer 	repo_load[7] 	592
scalar abilene_network.node[7].core_layer 	data[7] 	1715
scalar abilene_network.node[7].content_store 	p_hit[7] 	0.37631792376318
scalar abilene_network.node[7].content_store 	hits[7] 	1392
scalar abilene_network.node[7].content_store 	misses[7] 	2307
scalar abilene_network.node[7].content_store 	decision_yes[7] 	2307
scalar abilene_network.node[7].content_store 	decision_no[7] 	0
scalar abilene_network.node[7].content_store 	decision_ratio[7] 	1
scalar abilene_network.node[8].core_layer 	interests[8] 	3667
scalar abilene_network.node[8].core_layer 	repo_load[8] 	456
scalar abilene_network.node[8].core_layer 	data[8] 	1719
scalar abilene_network.node[8].content_store 	p_hit[8] 	0.40687210253613
scalar abilene_network.node[8].content_store 	hits[8] 	1492
scalar abilene_network.node[8].content_store 	misses[8] 	2175
scalar abilene_network.node[8].content_store 	decision_yes[8] 	2175
scalar abilene_network.node[8].content_store 	decision_no[8] 	0
scalar abilene_network.node[8].content_store 	decision_ratio[8] 	1
scalar abilene_network.node[9].core_layer 	interests[9] 	2890
scalar abilene_network.node[9].core_layer 	repo_load[9] 	473
scalar abilene_network.node[9].core_layer 	data[9] 	1101
scalar abilene_network.node[9].content_store 	p_hit[9] 	0.45536332179931
scalar abilene_network.node[9].content_store 	hits[9] 	1316
scalar abilene_network.node[9].content_store 	misses[9] 	1574
scalar abilene_network.node[9].content_store 	decision_yes[9] 	1574
scalar abilene_network.node[9].content_store 	decision_no[9] 	0
scalar abilene_network.node[9].content_store 	decision_ratio[9] 	1
scalar abilene_network.node[10].core_layer 	interests[10] 	2921
scalar abilene_network.node[10].core_layer 	repo_load[10] 	389
scalar abilene_network.node[10].core_layer 	data[10] 	1074
scalar abilene_network.node[10].content_store 	p_hit[10] 	0.49914412872304
scalar abilene_network.node[10].content_store 	hits[10] 	1458
scalar abilene_network.node[10].content_store 	misses[10] 	1463
scalar abilene_network.node[10].content_store 	decision_yes[10] 	1463
scalar abilene_network.node[10].content_store 	decision_no[10] 	0
scalar abilene_network.node[10].content_store 	decision_ratio[10] 	1
scalar abilene_network.client[0] 	hdistance[0] 	1.2201392608463
scalar abilene_network.client[0] 	downloads[0] 	1867
scalar abilene_network.client[0] 	avg_time[0] 	0.006973325726
scalar abilene_network.client[0] 	interests_sent[0] 	1867
scalar abilene_network.client[1] 	hdistance[1] 	1.0762229806598
scalar abilene_network.client[1] 	downloads[1] 	1758
scalar abilene_network.client[1] 	avg_time[1] 	0.005447690119
scalar abilene_network.client[1] 	interests_sent[1] 	1758
scalar abilene_network.client[2] 	hdistance[2] 	1.0241844769404
scalar abilene_network.client[2] 	downloads[2] 	1778
scalar abilene_network.client[2] 	avg_time[2] 	0.004798132286
scalar abilene_network.client[2] 	interests_sent[2] 	1778
scalar abilene_network.client[3] 	hdistance[3] 	0.97682119205298
scalar abilene_network.client[3] 	downloads[3] 	1812
scalar abilene_network.client[3] 	avg_time[3] 	0.004019712572
scalar abilene_network.client[3] 	interests_sent[3] 	1812
scalar abilene_network.client[4] 	hdistance[4] 	1.2438220757825
scalar abilene_network.client[4] 	downloads[4] 	1821
scalar abilene_network.client[4] 	avg_time[4] 	0.00475870355
scalar abilene_network.client[4] 	interests_sent[4] 	1821
scalar abilene_network.client[5] 	hdistance[5] 	1.2425603593487
scalar abilene_network.client[5] 	downloads[5] 	1781
scalar abilene_network.client[5] 	avg_time[5] 	0.005537135992
scalar abilene_network.client[5] 	interests_sent[5] 	1781
scalar abilene_network.client[6] 	hdistance[6] 	1.1158008658009
scalar abilene_network.client[6] 	downloads[6] 	1848
scalar abilene_network.client[6] 	avg_time[6] 	0.005359144563
scalar abilene_network.client[6] 	interests_sent[6] 	1848
scalar abilene_network.client[7] 	hdistance[7] 	1.0334872979215
scalar abilene_network.client[7] 	downloads[7] 	1732
scalar abilene_network.client[7] 	avg_time[7] 	0.004871835601
scalar abilene_network.client[7] 	interests_sent[7] 	1732
scalar abilene_network.client[8] 	hdistance[8] 	0.93090315560392
scalar abilene_network.client[8] 	downloads[8] 	1838
scalar abilene_network.client[8] 	avg_time[8] 	0.005379596934
scalar abilene_network.client[8] 	interests_sent[8] 	1838
scalar abilene_network.client[9] 	hdistance[9] 	1.0794016110472
scalar abilene_network.client[9] 	downloads[9] 	1738
scalar abilene_network.client[9] 	avg_time[9] 	0.007171783222
scalar abilene_network.client[9] 	interests_sent[9] 	1738
scalar abilene_network.client[10] 	hdistance[10] 	1.111540585312
scalar abilene_network.client[10] 	downloads[10] 	1811
scalar abilene_network.client[10] 	avg_time[10] 	0.006393097272
scalar abilene_network.client[10] 	interests_sent[10] 	1811
