version 2
run General-26-20140627-19:27:22-15389
attr D fix0.01
attr F nrr
attr R lru
attr a 1
attr configname General
attr csize 1e3
attr ctlg 1e5
attr datetime 20140627-19:27:22
attr experiment General
attr inifile omnetpp.ini
attr iterationvars "$net=abilene_cost, $rep=18, $priceratiovalue=10, $weights=0.333_0.333_0.334, $lambda=100, $a=1, $ctlg=1e5, $F=nrr, $ttl=1000, $D=fix0.01, $xi=1, $R=lru, $csize=1e3, $pricebits=0, $window=60, $variance=0.05, $mytime=1800"
attr iterationvars2 "$net=abilene_cost, $rep=18, $priceratiovalue=10, $weights=0.333_0.333_0.334, $lambda=100, $a=1, $ctlg=1e5, $F=nrr, $ttl=1000, $D=fix0.01, $xi=1, $R=lru, $csize=1e3, $pricebits=0, $window=60, $variance=0.05, $mytime=1800, $repetition=0"
attr lambda 100
attr measurement "$net=abilene_cost, $rep=18, $priceratiovalue=10, $weights=0.333_0.333_0.334, $lambda=100, $a=1, $ctlg=1e5, $F=nrr, $ttl=1000, $D=fix0.01, $xi=1, $R=lru, $csize=1e3, $pricebits=0, $window=60, $variance=0.05, $mytime=1800"
attr mytime 1800
attr net abilene_cost
attr network "networks.${net=geant_cost, abilene_cost}_network"
attr pricebits 0
attr priceratiovalue 10
attr processid 15389
attr rep 18
attr repetition 0
attr replication #0
attr resultdir results
attr runnumber 26
attr seedset 18
attr ttl 1000
attr variance 0.05
attr weights 0.333_0.333_0.334
attr window 60
attr xi 1

scalar . 	a 	1
scalar . 	csize 	1e3
scalar . 	ctlg 	1e5
scalar . 	lambda 	100
scalar . 	mytime 	1800
scalar . 	pricebits 	0
scalar . 	priceratiovalue 	10
scalar . 	rep 	18
scalar . 	ttl 	1000
scalar . 	variance 	0.05
scalar . 	window 	60
scalar . 	xi 	1
scalar abilene_cost_network.content_distribution 	repo-0 	11
scalar abilene_cost_network.content_distribution 	repo-1 	12
scalar abilene_cost_network.content_distribution 	repo-2 	13
scalar abilene_cost_network.content_distribution 	client-0 	5
scalar abilene_cost_network.content_distribution 	client-1 	0
scalar abilene_cost_network.content_distribution 	client-2 	9
scalar abilene_cost_network.content_distribution 	repo-0_card 	33459
scalar abilene_cost_network.content_distribution 	repo-1_card 	33216
scalar abilene_cost_network.content_distribution 	repo-2_card 	33325
scalar abilene_cost_network.statistics 	repo_popularity[0] 	0.37544107217466
scalar abilene_cost_network.statistics 	repo_popularity[1] 	0.27083019094872
scalar abilene_cost_network.statistics 	repo_popularity[2] 	0.35372873687662
scalar abilene_cost_network.statistics 	stabilization_time 	472.8
scalar abilene_cost_network.node[1].face$o[4].channel 	price[1] 	0
scalar abilene_cost_network.node[1].face$o[4].channel 	represented_price[1] 	0
scalar abilene_cost_network.node[7].face$o[4].channel 	price[7] 	0
scalar abilene_cost_network.node[7].face$o[4].channel 	represented_price[7] 	0
scalar abilene_cost_network.node[10].face$o[4].channel 	price[10] 	0
scalar abilene_cost_network.node[10].face$o[4].channel 	represented_price[10] 	0
scalar abilene_cost_network.node[11].face$o[1].channel 	price[11] 	0
scalar abilene_cost_network.node[11].face$o[1].channel 	represented_price[11] 	0
scalar abilene_cost_network.node[12].face$o[1].channel 	price[12] 	1
scalar abilene_cost_network.node[12].face$o[1].channel 	represented_price[12] 	1
scalar abilene_cost_network.node[13].face$o[1].channel 	price[13] 	10
scalar abilene_cost_network.node[13].face$o[1].channel 	represented_price[13] 	10
scalar abilene_cost_network.statistics 	p_hit 	0.18794041761112
scalar abilene_cost_network.statistics 	interests 	111207.35714286
scalar abilene_cost_network.statistics 	data 	72616
scalar abilene_cost_network.statistics 	hdistance 	2.3406000245622
scalar abilene_cost_network.statistics 	avg_time 	0.009354318559
scalar abilene_cost_network.statistics 	downloads 	540210
scalar abilene_cost_network.statistics 	total_cost 	908815
scalar abilene_cost_network.statistics 	total_replicas 	100000
scalar abilene_cost_network.statistics 	inner_hit 	0.54165787378982
scalar abilene_cost_network.statistics 	interests_sent 	540283
scalar abilene_cost_network.node[0].core_layer 	interests[0] 	183356
scalar abilene_cost_network.node[0].core_layer 	data[0] 	110473
scalar abilene_cost_network.node[0].core_layer 	repo_int[0] 	247601
scalar abilene_cost_network.node[0].content_store 	p_hit[0] 	0.39739632190929
scalar abilene_cost_network.node[0].content_store 	hits[0] 	72865
scalar abilene_cost_network.node[0].content_store 	misses[0] 	110491
scalar abilene_cost_network.node[0].content_store 	decision_yes[0] 	1129
scalar abilene_cost_network.node[0].content_store 	decision_no[0] 	109344
scalar abilene_cost_network.node[0].content_store 	decision_ratio[0] 	0.010219691689372
scalar abilene_cost_network.node[1].core_layer 	interests[1] 	161655
scalar abilene_cost_network.node[1].core_layer 	data[1] 	151668
scalar abilene_cost_network.node[1].content_store 	p_hit[1] 	0.061785902075408
scalar abilene_cost_network.node[1].content_store 	hits[1] 	9988
scalar abilene_cost_network.node[1].content_store 	misses[1] 	151667
scalar abilene_cost_network.node[1].content_store 	decision_yes[1] 	1521
scalar abilene_cost_network.node[1].content_store 	decision_no[1] 	150147
scalar abilene_cost_network.node[1].content_store 	decision_ratio[1] 	0.010028483266081
scalar abilene_cost_network.node[2].core_layer 	interests[2] 	106659
scalar abilene_cost_network.node[2].core_layer 	data[2] 	97070
scalar abilene_cost_network.node[2].content_store 	p_hit[2] 	0.08988458545458
scalar abilene_cost_network.node[2].content_store 	hits[2] 	9587
scalar abilene_cost_network.node[2].content_store 	misses[2] 	97072
scalar abilene_cost_network.node[2].content_store 	decision_yes[2] 	1008
scalar abilene_cost_network.node[2].content_store 	decision_no[2] 	96062
scalar abilene_cost_network.node[2].content_store 	decision_ratio[2] 	0.010384258782322
scalar abilene_cost_network.node[3].core_layer 	interests[3] 	100335
scalar abilene_cost_network.node[3].core_layer 	data[3] 	92276
scalar abilene_cost_network.node[3].content_store 	p_hit[3] 	0.080310958289729
scalar abilene_cost_network.node[3].content_store 	hits[3] 	8058
scalar abilene_cost_network.node[3].content_store 	misses[3] 	92277
scalar abilene_cost_network.node[3].content_store 	decision_yes[3] 	844
scalar abilene_cost_network.node[3].content_store 	decision_no[3] 	91432
scalar abilene_cost_network.node[3].content_store 	decision_ratio[3] 	0.0091464736226104
scalar abilene_cost_network.node[4].core_layer 	interests[4] 	73671
scalar abilene_cost_network.node[4].core_layer 	data[4] 	66000
scalar abilene_cost_network.node[4].content_store 	p_hit[4] 	0.1041115228516
scalar abilene_cost_network.node[4].content_store 	hits[4] 	7670
scalar abilene_cost_network.node[4].content_store 	misses[4] 	66001
scalar abilene_cost_network.node[4].content_store 	decision_yes[4] 	699
scalar abilene_cost_network.node[4].content_store 	decision_no[4] 	65301
scalar abilene_cost_network.node[4].content_store 	decision_ratio[4] 	0.010590909090909
scalar abilene_cost_network.node[5].core_layer 	interests[5] 	180468
scalar abilene_cost_network.node[5].core_layer 	data[5] 	109980
scalar abilene_cost_network.node[5].content_store 	p_hit[5] 	0.39042932819115
scalar abilene_cost_network.node[5].content_store 	hits[5] 	70460
scalar abilene_cost_network.node[5].content_store 	misses[5] 	110008
scalar abilene_cost_network.node[5].content_store 	decision_yes[5] 	1120
scalar abilene_cost_network.node[5].content_store 	decision_no[5] 	108860
scalar abilene_cost_network.node[5].content_store 	decision_ratio[5] 	0.010183669758138
scalar abilene_cost_network.node[6].core_layer 	interests[6] 	40314
scalar abilene_cost_network.node[6].core_layer 	data[6] 	32952
scalar abilene_cost_network.node[6].content_store 	p_hit[6] 	0.18266607133998
scalar abilene_cost_network.node[6].content_store 	hits[6] 	7364
scalar abilene_cost_network.node[6].content_store 	misses[6] 	32950
scalar abilene_cost_network.node[6].content_store 	decision_yes[6] 	335
scalar abilene_cost_network.node[6].content_store 	decision_no[6] 	32617
scalar abilene_cost_network.node[6].content_store 	decision_ratio[6] 	0.010166302500607
scalar abilene_cost_network.node[7].core_layer 	interests[7] 	91589
scalar abilene_cost_network.node[7].core_layer 	data[7] 	84741
scalar abilene_cost_network.node[7].content_store 	p_hit[7] 	0.074768804114031
scalar abilene_cost_network.node[7].content_store 	hits[7] 	6848
scalar abilene_cost_network.node[7].content_store 	misses[7] 	84741
scalar abilene_cost_network.node[7].content_store 	decision_yes[7] 	834
scalar abilene_cost_network.node[7].content_store 	decision_no[7] 	83907
scalar abilene_cost_network.node[7].content_store 	decision_ratio[7] 	0.0098417531065246
scalar abilene_cost_network.node[8].core_layer 	interests[8] 	47999
scalar abilene_cost_network.node[8].core_layer 	data[8] 	37392
scalar abilene_cost_network.node[8].content_store 	p_hit[8] 	0.22100460426259
scalar abilene_cost_network.node[8].content_store 	hits[8] 	10608
scalar abilene_cost_network.node[8].content_store 	misses[8] 	37391
scalar abilene_cost_network.node[8].content_store 	decision_yes[8] 	355
scalar abilene_cost_network.node[8].content_store 	decision_no[8] 	37037
scalar abilene_cost_network.node[8].content_store 	decision_ratio[8] 	0.0094940094137783
scalar abilene_cost_network.node[9].core_layer 	interests[9] 	184931
scalar abilene_cost_network.node[9].core_layer 	data[9] 	111077
scalar abilene_cost_network.node[9].content_store 	p_hit[9] 	0.39921376080809
scalar abilene_cost_network.node[9].content_store 	hits[9] 	73827
scalar abilene_cost_network.node[9].content_store 	misses[9] 	111104
scalar abilene_cost_network.node[9].content_store 	decision_yes[9] 	1138
scalar abilene_cost_network.node[9].content_store 	decision_no[9] 	109939
scalar abilene_cost_network.node[9].content_store 	decision_ratio[9] 	0.010245145259595
scalar abilene_cost_network.node[10].core_layer 	interests[10] 	138325
scalar abilene_cost_network.node[10].core_layer 	data[10] 	122995
scalar abilene_cost_network.node[10].content_store 	p_hit[10] 	0.11082595337068
scalar abilene_cost_network.node[10].content_store 	hits[10] 	15330
scalar abilene_cost_network.node[10].content_store 	misses[10] 	122995
scalar abilene_cost_network.node[10].content_store 	decision_yes[10] 	1255
scalar abilene_cost_network.node[10].content_store 	decision_no[10] 	121740
scalar abilene_cost_network.node[10].content_store 	decision_ratio[10] 	0.010203666815724
scalar abilene_cost_network.node[11].core_layer 	interests[11] 	86218
scalar abilene_cost_network.node[11].core_layer 	repo_load[11] 	86218
scalar abilene_cost_network.node[11].core_layer 	data[11] 	0
scalar abilene_cost_network.node[11].content_store 	p_hit[11] 	0
scalar abilene_cost_network.node[11].content_store 	hits[11] 	0
scalar abilene_cost_network.node[11].content_store 	misses[11] 	86218
scalar abilene_cost_network.node[11].content_store 	decision_yes[11] 	0
scalar abilene_cost_network.node[11].content_store 	decision_no[11] 	86218
scalar abilene_cost_network.node[11].content_store 	decision_ratio[11] 	0
scalar abilene_cost_network.node[12].core_layer 	interests[12] 	78335
scalar abilene_cost_network.node[12].core_layer 	repo_load[12] 	78335
scalar abilene_cost_network.node[12].core_layer 	data[12] 	0
scalar abilene_cost_network.node[12].content_store 	p_hit[12] 	0
scalar abilene_cost_network.node[12].content_store 	hits[12] 	0
scalar abilene_cost_network.node[12].content_store 	misses[12] 	78335
scalar abilene_cost_network.node[12].content_store 	decision_yes[12] 	0
scalar abilene_cost_network.node[12].content_store 	decision_no[12] 	78335
scalar abilene_cost_network.node[12].content_store 	decision_ratio[12] 	0
scalar abilene_cost_network.node[13].core_layer 	interests[13] 	83048
scalar abilene_cost_network.node[13].core_layer 	repo_load[13] 	83048
scalar abilene_cost_network.node[13].core_layer 	data[13] 	0
scalar abilene_cost_network.node[13].content_store 	p_hit[13] 	0
scalar abilene_cost_network.node[13].content_store 	hits[13] 	0
scalar abilene_cost_network.node[13].content_store 	misses[13] 	83048
scalar abilene_cost_network.node[13].content_store 	decision_yes[13] 	0
scalar abilene_cost_network.node[13].content_store 	decision_no[13] 	83048
scalar abilene_cost_network.node[13].content_store 	decision_ratio[13] 	0
scalar abilene_cost_network.client[0] 	hdistance[0] 	2.1400406978683
scalar abilene_cost_network.client[0] 	downloads[0] 	179862
scalar abilene_cost_network.client[0] 	avg_time[0] 	0.009112524884
scalar abilene_cost_network.client[0] 	interests_sent[0] 	179880
scalar abilene_cost_network.client[5] 	hdistance[5] 	2.9350840628039
scalar abilene_cost_network.client[5] 	downloads[5] 	179925
scalar abilene_cost_network.client[5] 	avg_time[5] 	0.010827168244
scalar abilene_cost_network.client[5] 	interests_sent[5] 	179953
scalar abilene_cost_network.client[9] 	hdistance[9] 	1.9466753130144
scalar abilene_cost_network.client[9] 	downloads[9] 	180423
scalar abilene_cost_network.client[9] 	avg_time[9] 	0.00812326255
scalar abilene_cost_network.client[9] 	interests_sent[9] 	180450
