version 2
run General-34-20140627-19:28:18-22799
attr D fix0.01
attr F nrr
attr R lru
attr a 1
attr configname General
attr csize 1e3
attr ctlg 1e5
attr datetime 20140627-19:28:18
attr experiment General
attr inifile omnetpp.ini
attr iterationvars "$net=abilene_cost, $rep=14, $priceratiovalue=10, $weights=0.333_0.333_0.334, $lambda=100, $a=1, $ctlg=1e5, $F=nrr, $ttl=1000, $D=fix0.01, $xi=1, $R=lru, $csize=1e3, $pricebits=0, $window=60, $variance=0.05, $mytime=1800"
attr iterationvars2 "$net=abilene_cost, $rep=14, $priceratiovalue=10, $weights=0.333_0.333_0.334, $lambda=100, $a=1, $ctlg=1e5, $F=nrr, $ttl=1000, $D=fix0.01, $xi=1, $R=lru, $csize=1e3, $pricebits=0, $window=60, $variance=0.05, $mytime=1800, $repetition=0"
attr lambda 100
attr measurement "$net=abilene_cost, $rep=14, $priceratiovalue=10, $weights=0.333_0.333_0.334, $lambda=100, $a=1, $ctlg=1e5, $F=nrr, $ttl=1000, $D=fix0.01, $xi=1, $R=lru, $csize=1e3, $pricebits=0, $window=60, $variance=0.05, $mytime=1800"
attr mytime 1800
attr net abilene_cost
attr network "networks.${net=geant_cost, abilene_cost}_network"
attr pricebits 0
attr priceratiovalue 10
attr processid 22799
attr rep 14
attr repetition 0
attr replication #0
attr resultdir results
attr runnumber 34
attr seedset 14
attr ttl 1000
attr variance 0.05
attr weights 0.333_0.333_0.334
attr window 60
attr xi 1

scalar . 	a 	1
scalar . 	csize 	1e3
scalar . 	ctlg 	1e5
scalar . 	lambda 	100
scalar . 	mytime 	1800
scalar . 	pricebits 	0
scalar . 	priceratiovalue 	10
scalar . 	rep 	14
scalar . 	ttl 	1000
scalar . 	variance 	0.05
scalar . 	window 	60
scalar . 	xi 	1
scalar abilene_cost_network.content_distribution 	repo-0 	11
scalar abilene_cost_network.content_distribution 	repo-1 	12
scalar abilene_cost_network.content_distribution 	repo-2 	13
scalar abilene_cost_network.content_distribution 	client-0 	5
scalar abilene_cost_network.content_distribution 	client-1 	0
scalar abilene_cost_network.content_distribution 	client-2 	9
scalar abilene_cost_network.content_distribution 	repo-0_card 	32966
scalar abilene_cost_network.content_distribution 	repo-1_card 	33555
scalar abilene_cost_network.content_distribution 	repo-2_card 	33479
scalar abilene_cost_network.statistics 	repo_popularity[0] 	0.41551934442987
scalar abilene_cost_network.statistics 	repo_popularity[1] 	0.31847271720617
scalar abilene_cost_network.statistics 	repo_popularity[2] 	0.26600793836396
scalar abilene_cost_network.statistics 	stabilization_time 	475
scalar abilene_cost_network.node[1].face$o[4].channel 	price[1] 	0
scalar abilene_cost_network.node[1].face$o[4].channel 	represented_price[1] 	0
scalar abilene_cost_network.node[7].face$o[4].channel 	price[7] 	0
scalar abilene_cost_network.node[7].face$o[4].channel 	represented_price[7] 	0
scalar abilene_cost_network.node[10].face$o[4].channel 	price[10] 	0
scalar abilene_cost_network.node[10].face$o[4].channel 	represented_price[10] 	0
scalar abilene_cost_network.node[11].face$o[1].channel 	price[11] 	0
scalar abilene_cost_network.node[11].face$o[1].channel 	represented_price[11] 	0
scalar abilene_cost_network.node[12].face$o[1].channel 	price[12] 	1
scalar abilene_cost_network.node[12].face$o[1].channel 	represented_price[12] 	1
scalar abilene_cost_network.node[13].face$o[1].channel 	price[13] 	10
scalar abilene_cost_network.node[13].face$o[1].channel 	represented_price[13] 	10
scalar abilene_cost_network.statistics 	p_hit 	0.1882931482305
scalar abilene_cost_network.statistics 	interests 	110826.42857143
scalar abilene_cost_network.statistics 	data 	72319.928571429
scalar abilene_cost_network.statistics 	hdistance 	2.3366889979195
scalar abilene_cost_network.statistics 	avg_time 	0.009355251429
scalar abilene_cost_network.statistics 	downloads 	539001
scalar abilene_cost_network.statistics 	total_cost 	940855
scalar abilene_cost_network.statistics 	total_replicas 	100000
scalar abilene_cost_network.statistics 	inner_hit 	0.54202311312966
scalar abilene_cost_network.statistics 	interests_sent 	539092
scalar abilene_cost_network.node[0].core_layer 	interests[0] 	183570
scalar abilene_cost_network.node[0].core_layer 	data[0] 	109830
scalar abilene_cost_network.node[0].core_layer 	repo_int[0] 	246850
scalar abilene_cost_network.node[0].content_store 	p_hit[0] 	0.40152530369886
scalar abilene_cost_network.node[0].content_store 	hits[0] 	73708
scalar abilene_cost_network.node[0].content_store 	misses[0] 	109862
scalar abilene_cost_network.node[0].content_store 	decision_yes[0] 	1115
scalar abilene_cost_network.node[0].content_store 	decision_no[0] 	108715
scalar abilene_cost_network.node[0].content_store 	decision_ratio[0] 	0.010152053173086
scalar abilene_cost_network.node[1].core_layer 	interests[1] 	163351
scalar abilene_cost_network.node[1].core_layer 	data[1] 	153912
scalar abilene_cost_network.node[1].content_store 	p_hit[1] 	0.057783545861366
scalar abilene_cost_network.node[1].content_store 	hits[1] 	9439
scalar abilene_cost_network.node[1].content_store 	misses[1] 	153912
scalar abilene_cost_network.node[1].content_store 	decision_yes[1] 	1571
scalar abilene_cost_network.node[1].content_store 	decision_no[1] 	152341
scalar abilene_cost_network.node[1].content_store 	decision_ratio[1] 	0.010207131347783
scalar abilene_cost_network.node[2].core_layer 	interests[2] 	106515
scalar abilene_cost_network.node[2].core_layer 	data[2] 	96588
scalar abilene_cost_network.node[2].content_store 	p_hit[2] 	0.093188752757828
scalar abilene_cost_network.node[2].content_store 	hits[2] 	9926
scalar abilene_cost_network.node[2].content_store 	misses[2] 	96589
scalar abilene_cost_network.node[2].content_store 	decision_yes[2] 	998
scalar abilene_cost_network.node[2].content_store 	decision_no[2] 	95590
scalar abilene_cost_network.node[2].content_store 	decision_ratio[2] 	0.010332546486106
scalar abilene_cost_network.node[3].core_layer 	interests[3] 	98885
scalar abilene_cost_network.node[3].core_layer 	data[3] 	91875
scalar abilene_cost_network.node[3].content_store 	p_hit[3] 	0.070890428275269
scalar abilene_cost_network.node[3].content_store 	hits[3] 	7010
scalar abilene_cost_network.node[3].content_store 	misses[3] 	91875
scalar abilene_cost_network.node[3].content_store 	decision_yes[3] 	896
scalar abilene_cost_network.node[3].content_store 	decision_no[3] 	90979
scalar abilene_cost_network.node[3].content_store 	decision_ratio[3] 	0.009752380952381
scalar abilene_cost_network.node[4].core_layer 	interests[4] 	72995
scalar abilene_cost_network.node[4].core_layer 	data[4] 	65605
scalar abilene_cost_network.node[4].content_store 	p_hit[4] 	0.10123981094596
scalar abilene_cost_network.node[4].content_store 	hits[4] 	7390
scalar abilene_cost_network.node[4].content_store 	misses[4] 	65605
scalar abilene_cost_network.node[4].content_store 	decision_yes[4] 	643
scalar abilene_cost_network.node[4].content_store 	decision_no[4] 	64962
scalar abilene_cost_network.node[4].content_store 	decision_ratio[4] 	0.0098010822345858
scalar abilene_cost_network.node[5].core_layer 	interests[5] 	179887
scalar abilene_cost_network.node[5].core_layer 	data[5] 	109308
scalar abilene_cost_network.node[5].content_store 	p_hit[5] 	0.39219621206646
scalar abilene_cost_network.node[5].content_store 	hits[5] 	70551
scalar abilene_cost_network.node[5].content_store 	misses[5] 	109336
scalar abilene_cost_network.node[5].content_store 	decision_yes[5] 	1098
scalar abilene_cost_network.node[5].content_store 	decision_no[5] 	108210
scalar abilene_cost_network.node[5].content_store 	decision_ratio[5] 	0.010045010429246
scalar abilene_cost_network.node[6].core_layer 	interests[6] 	40127
scalar abilene_cost_network.node[6].core_layer 	data[6] 	33242
scalar abilene_cost_network.node[6].content_store 	p_hit[6] 	0.17158023276098
scalar abilene_cost_network.node[6].content_store 	hits[6] 	6885
scalar abilene_cost_network.node[6].content_store 	misses[6] 	33242
scalar abilene_cost_network.node[6].content_store 	decision_yes[6] 	348
scalar abilene_cost_network.node[6].content_store 	decision_no[6] 	32894
scalar abilene_cost_network.node[6].content_store 	decision_ratio[6] 	0.010468684194693
scalar abilene_cost_network.node[7].core_layer 	interests[7] 	90834
scalar abilene_cost_network.node[7].core_layer 	data[7] 	83503
scalar abilene_cost_network.node[7].content_store 	p_hit[7] 	0.080707664530903
scalar abilene_cost_network.node[7].content_store 	hits[7] 	7331
scalar abilene_cost_network.node[7].content_store 	misses[7] 	83503
scalar abilene_cost_network.node[7].content_store 	decision_yes[7] 	826
scalar abilene_cost_network.node[7].content_store 	decision_no[7] 	82677
scalar abilene_cost_network.node[7].content_store 	decision_ratio[7] 	0.0098918601726884
scalar abilene_cost_network.node[8].core_layer 	interests[8] 	49150
scalar abilene_cost_network.node[8].core_layer 	data[8] 	36853
scalar abilene_cost_network.node[8].content_store 	p_hit[8] 	0.25021363173957
scalar abilene_cost_network.node[8].content_store 	hits[8] 	12298
scalar abilene_cost_network.node[8].content_store 	misses[8] 	36852
scalar abilene_cost_network.node[8].content_store 	decision_yes[8] 	385
scalar abilene_cost_network.node[8].content_store 	decision_no[8] 	36468
scalar abilene_cost_network.node[8].content_store 	decision_ratio[8] 	0.010446910699265
scalar abilene_cost_network.node[9].core_layer 	interests[9] 	183625
scalar abilene_cost_network.node[9].core_layer 	data[9] 	110958
scalar abilene_cost_network.node[9].content_store 	p_hit[9] 	0.39556705241661
scalar abilene_cost_network.node[9].content_store 	hits[9] 	72636
scalar abilene_cost_network.node[9].content_store 	misses[9] 	110989
scalar abilene_cost_network.node[9].content_store 	decision_yes[9] 	1125
scalar abilene_cost_network.node[9].content_store 	decision_no[9] 	109833
scalar abilene_cost_network.node[9].content_store 	decision_ratio[9] 	0.010138971502731
scalar abilene_cost_network.node[10].core_layer 	interests[10] 	135781
scalar abilene_cost_network.node[10].core_layer 	data[10] 	120805
scalar abilene_cost_network.node[10].content_store 	p_hit[10] 	0.11029525485893
scalar abilene_cost_network.node[10].content_store 	hits[10] 	14976
scalar abilene_cost_network.node[10].content_store 	misses[10] 	120805
scalar abilene_cost_network.node[10].content_store 	decision_yes[10] 	1191
scalar abilene_cost_network.node[10].content_store 	decision_no[10] 	119614
scalar abilene_cost_network.node[10].content_store 	decision_ratio[10] 	0.0098588634576383
scalar abilene_cost_network.node[11].core_layer 	interests[11] 	83514
scalar abilene_cost_network.node[11].core_layer 	repo_load[11] 	83514
scalar abilene_cost_network.node[11].core_layer 	data[11] 	0
scalar abilene_cost_network.node[11].content_store 	p_hit[11] 	0
scalar abilene_cost_network.node[11].content_store 	hits[11] 	0
scalar abilene_cost_network.node[11].content_store 	misses[11] 	83514
scalar abilene_cost_network.node[11].content_store 	decision_yes[11] 	0
scalar abilene_cost_network.node[11].content_store 	decision_no[11] 	83514
scalar abilene_cost_network.node[11].content_store 	decision_ratio[11] 	0
scalar abilene_cost_network.node[12].core_layer 	interests[12] 	76945
scalar abilene_cost_network.node[12].core_layer 	repo_load[12] 	76945
scalar abilene_cost_network.node[12].core_layer 	data[12] 	0
scalar abilene_cost_network.node[12].content_store 	p_hit[12] 	0
scalar abilene_cost_network.node[12].content_store 	hits[12] 	0
scalar abilene_cost_network.node[12].content_store 	misses[12] 	76945
scalar abilene_cost_network.node[12].content_store 	decision_yes[12] 	0
scalar abilene_cost_network.node[12].content_store 	decision_no[12] 	76945
scalar abilene_cost_network.node[12].content_store 	decision_ratio[12] 	0
scalar abilene_cost_network.node[13].core_layer 	interests[13] 	86391
scalar abilene_cost_network.node[13].core_layer 	repo_load[13] 	86391
scalar abilene_cost_network.node[13].core_layer 	data[13] 	0
scalar abilene_cost_network.node[13].content_store 	p_hit[13] 	0
scalar abilene_cost_network.node[13].content_store 	hits[13] 	0
scalar abilene_cost_network.node[13].content_store 	misses[13] 	86391
scalar abilene_cost_network.node[13].content_store 	decision_yes[13] 	0
scalar abilene_cost_network.node[13].content_store 	decision_no[13] 	86391
scalar abilene_cost_network.node[13].content_store 	decision_ratio[13] 	0
scalar abilene_cost_network.client[0] 	hdistance[0] 	2.1179486325882
scalar abilene_cost_network.client[0] 	downloads[0] 	180231
scalar abilene_cost_network.client[0] 	avg_time[0] 	0.009026498049
scalar abilene_cost_network.client[0] 	interests_sent[0] 	180263
scalar abilene_cost_network.client[5] 	hdistance[5] 	2.9374773579753
scalar abilene_cost_network.client[5] 	downloads[5] 	179423
scalar abilene_cost_network.client[5] 	avg_time[5] 	0.010821450093
scalar abilene_cost_network.client[5] 	interests_sent[5] 	179451
scalar abilene_cost_network.client[9] 	hdistance[9] 	1.9546410031949
scalar abilene_cost_network.client[9] 	downloads[9] 	179347
scalar abilene_cost_network.client[9] 	avg_time[9] 	0.008217806145
scalar abilene_cost_network.client[9] 	interests_sent[9] 	179378
