version 2
run General-34-20140627-19:43:28-15430
attr D fix0.01
attr F nrr
attr R lru
attr a 1
attr configname General
attr csize 1e3
attr ctlg 1e5
attr datetime 20140627-19:43:28
attr experiment General
attr inifile omnetpp.ini
attr iterationvars "$net=abilene_cost, $rep=19, $priceratiovalue=10, $weights=0.333_0.333_0.334, $lambda=100, $a=1, $ctlg=1e5, $F=nrr, $ttl=1000, $D=fix0.01, $xi=1, $R=lru, $csize=1e3, $pricebits=0, $window=60, $variance=0.05, $mytime=1800"
attr iterationvars2 "$net=abilene_cost, $rep=19, $priceratiovalue=10, $weights=0.333_0.333_0.334, $lambda=100, $a=1, $ctlg=1e5, $F=nrr, $ttl=1000, $D=fix0.01, $xi=1, $R=lru, $csize=1e3, $pricebits=0, $window=60, $variance=0.05, $mytime=1800, $repetition=0"
attr lambda 100
attr measurement "$net=abilene_cost, $rep=19, $priceratiovalue=10, $weights=0.333_0.333_0.334, $lambda=100, $a=1, $ctlg=1e5, $F=nrr, $ttl=1000, $D=fix0.01, $xi=1, $R=lru, $csize=1e3, $pricebits=0, $window=60, $variance=0.05, $mytime=1800"
attr mytime 1800
attr net abilene_cost
attr network "networks.${net=geant_cost, abilene_cost}_network"
attr pricebits 0
attr priceratiovalue 10
attr processid 15430
attr rep 19
attr repetition 0
attr replication #0
attr resultdir results
attr runnumber 34
attr seedset 19
attr ttl 1000
attr variance 0.05
attr weights 0.333_0.333_0.334
attr window 60
attr xi 1

scalar . 	a 	1
scalar . 	csize 	1e3
scalar . 	ctlg 	1e5
scalar . 	lambda 	100
scalar . 	mytime 	1800
scalar . 	pricebits 	0
scalar . 	priceratiovalue 	10
scalar . 	rep 	19
scalar . 	ttl 	1000
scalar . 	variance 	0.05
scalar . 	window 	60
scalar . 	xi 	1
scalar abilene_cost_network.content_distribution 	repo-0 	11
scalar abilene_cost_network.content_distribution 	repo-1 	12
scalar abilene_cost_network.content_distribution 	repo-2 	13
scalar abilene_cost_network.content_distribution 	client-0 	5
scalar abilene_cost_network.content_distribution 	client-1 	0
scalar abilene_cost_network.content_distribution 	client-2 	9
scalar abilene_cost_network.content_distribution 	repo-0_card 	33368
scalar abilene_cost_network.content_distribution 	repo-1_card 	33389
scalar abilene_cost_network.content_distribution 	repo-2_card 	33243
scalar abilene_cost_network.statistics 	repo_popularity[0] 	0.2704974433948
scalar abilene_cost_network.statistics 	repo_popularity[1] 	0.39472808551936
scalar abilene_cost_network.statistics 	repo_popularity[2] 	0.33477447108584
scalar abilene_cost_network.statistics 	stabilization_time 	419.4
scalar abilene_cost_network.node[1].face$o[4].channel 	price[1] 	0
scalar abilene_cost_network.node[1].face$o[4].channel 	represented_price[1] 	0
scalar abilene_cost_network.node[7].face$o[4].channel 	price[7] 	0
scalar abilene_cost_network.node[7].face$o[4].channel 	represented_price[7] 	0
scalar abilene_cost_network.node[10].face$o[4].channel 	price[10] 	0
scalar abilene_cost_network.node[10].face$o[4].channel 	represented_price[10] 	0
scalar abilene_cost_network.node[11].face$o[1].channel 	price[11] 	0
scalar abilene_cost_network.node[11].face$o[1].channel 	represented_price[11] 	0
scalar abilene_cost_network.node[12].face$o[1].channel 	price[12] 	1
scalar abilene_cost_network.node[12].face$o[1].channel 	represented_price[12] 	1
scalar abilene_cost_network.node[13].face$o[1].channel 	price[13] 	10
scalar abilene_cost_network.node[13].face$o[1].channel 	represented_price[13] 	10
scalar abilene_cost_network.statistics 	p_hit 	0.18806356621287
scalar abilene_cost_network.statistics 	interests 	110948.42857143
scalar abilene_cost_network.statistics 	data 	72414.642857143
scalar abilene_cost_network.statistics 	hdistance 	2.3380811747369
scalar abilene_cost_network.statistics 	avg_time 	0.009328439463
scalar abilene_cost_network.statistics 	downloads 	539362
scalar abilene_cost_network.statistics 	total_cost 	905677
scalar abilene_cost_network.statistics 	total_replicas 	100000
scalar abilene_cost_network.statistics 	inner_hit 	0.54159358649664
scalar abilene_cost_network.statistics 	interests_sent 	539466
scalar abilene_cost_network.node[0].core_layer 	interests[0] 	183105
scalar abilene_cost_network.node[0].core_layer 	data[0] 	110070
scalar abilene_cost_network.node[0].core_layer 	repo_int[0] 	247247
scalar abilene_cost_network.node[0].content_store 	p_hit[0] 	0.39870566068649
scalar abilene_cost_network.node[0].content_store 	hits[0] 	73005
scalar abilene_cost_network.node[0].content_store 	misses[0] 	110100
scalar abilene_cost_network.node[0].content_store 	decision_yes[0] 	1051
scalar abilene_cost_network.node[0].content_store 	decision_no[0] 	109019
scalar abilene_cost_network.node[0].content_store 	decision_ratio[0] 	0.0095484691559916
scalar abilene_cost_network.node[1].core_layer 	interests[1] 	160938
scalar abilene_cost_network.node[1].core_layer 	data[1] 	150980
scalar abilene_cost_network.node[1].content_store 	p_hit[1] 	0.061874759224049
scalar abilene_cost_network.node[1].content_store 	hits[1] 	9958
scalar abilene_cost_network.node[1].content_store 	misses[1] 	150980
scalar abilene_cost_network.node[1].content_store 	decision_yes[1] 	1513
scalar abilene_cost_network.node[1].content_store 	decision_no[1] 	149467
scalar abilene_cost_network.node[1].content_store 	decision_ratio[1] 	0.010021194860246
scalar abilene_cost_network.node[2].core_layer 	interests[2] 	105409
scalar abilene_cost_network.node[2].core_layer 	data[2] 	96246
scalar abilene_cost_network.node[2].content_store 	p_hit[2] 	0.086899600603364
scalar abilene_cost_network.node[2].content_store 	hits[2] 	9160
scalar abilene_cost_network.node[2].content_store 	misses[2] 	96249
scalar abilene_cost_network.node[2].content_store 	decision_yes[2] 	969
scalar abilene_cost_network.node[2].content_store 	decision_no[2] 	95277
scalar abilene_cost_network.node[2].content_store 	decision_ratio[2] 	0.010067950875881
scalar abilene_cost_network.node[3].core_layer 	interests[3] 	99005
scalar abilene_cost_network.node[3].core_layer 	data[3] 	91438
scalar abilene_cost_network.node[3].content_store 	p_hit[3] 	0.076400181809
scalar abilene_cost_network.node[3].content_store 	hits[3] 	7564
scalar abilene_cost_network.node[3].content_store 	misses[3] 	91441
scalar abilene_cost_network.node[3].content_store 	decision_yes[3] 	856
scalar abilene_cost_network.node[3].content_store 	decision_no[3] 	90582
scalar abilene_cost_network.node[3].content_store 	decision_ratio[3] 	0.0093615345917452
scalar abilene_cost_network.node[4].core_layer 	interests[4] 	72163
scalar abilene_cost_network.node[4].core_layer 	data[4] 	65145
scalar abilene_cost_network.node[4].content_store 	p_hit[4] 	0.097224339342877
scalar abilene_cost_network.node[4].content_store 	hits[4] 	7016
scalar abilene_cost_network.node[4].content_store 	misses[4] 	65147
scalar abilene_cost_network.node[4].content_store 	decision_yes[4] 	645
scalar abilene_cost_network.node[4].content_store 	decision_no[4] 	64500
scalar abilene_cost_network.node[4].content_store 	decision_ratio[4] 	0.0099009900990099
scalar abilene_cost_network.node[5].core_layer 	interests[5] 	180298
scalar abilene_cost_network.node[5].core_layer 	data[5] 	110405
scalar abilene_cost_network.node[5].content_store 	p_hit[5] 	0.38742526262077
scalar abilene_cost_network.node[5].content_store 	hits[5] 	69852
scalar abilene_cost_network.node[5].content_store 	misses[5] 	110446
scalar abilene_cost_network.node[5].content_store 	decision_yes[5] 	1052
scalar abilene_cost_network.node[5].content_store 	decision_no[5] 	109353
scalar abilene_cost_network.node[5].content_store 	decision_ratio[5] 	0.0095285539604185
scalar abilene_cost_network.node[6].core_layer 	interests[6] 	42350
scalar abilene_cost_network.node[6].core_layer 	data[6] 	33374
scalar abilene_cost_network.node[6].content_store 	p_hit[6] 	0.21197166469894
scalar abilene_cost_network.node[6].content_store 	hits[6] 	8977
scalar abilene_cost_network.node[6].content_store 	misses[6] 	33373
scalar abilene_cost_network.node[6].content_store 	decision_yes[6] 	345
scalar abilene_cost_network.node[6].content_store 	decision_no[6] 	33029
scalar abilene_cost_network.node[6].content_store 	decision_ratio[6] 	0.010337388386169
scalar abilene_cost_network.node[7].core_layer 	interests[7] 	92013
scalar abilene_cost_network.node[7].core_layer 	data[7] 	84965
scalar abilene_cost_network.node[7].content_store 	p_hit[7] 	0.07659787203982
scalar abilene_cost_network.node[7].content_store 	hits[7] 	7048
scalar abilene_cost_network.node[7].content_store 	misses[7] 	84965
scalar abilene_cost_network.node[7].content_store 	decision_yes[7] 	809
scalar abilene_cost_network.node[7].content_store 	decision_no[7] 	84156
scalar abilene_cost_network.node[7].content_store 	decision_ratio[7] 	0.0095215677043488
scalar abilene_cost_network.node[8].core_layer 	interests[8] 	48160
scalar abilene_cost_network.node[8].core_layer 	data[8] 	37026
scalar abilene_cost_network.node[8].content_store 	p_hit[8] 	0.2311877076412
scalar abilene_cost_network.node[8].content_store 	hits[8] 	11134
scalar abilene_cost_network.node[8].content_store 	misses[8] 	37026
scalar abilene_cost_network.node[8].content_store 	decision_yes[8] 	399
scalar abilene_cost_network.node[8].content_store 	decision_no[8] 	36627
scalar abilene_cost_network.node[8].content_store 	decision_ratio[8] 	0.010776211310971
scalar abilene_cost_network.node[9].core_layer 	interests[9] 	184711
scalar abilene_cost_network.node[9].core_layer 	data[9] 	111064
scalar abilene_cost_network.node[9].content_store 	p_hit[9] 	0.39853609151594
scalar abilene_cost_network.node[9].content_store 	hits[9] 	73614
scalar abilene_cost_network.node[9].content_store 	misses[9] 	111097
scalar abilene_cost_network.node[9].content_store 	decision_yes[9] 	1094
scalar abilene_cost_network.node[9].content_store 	decision_no[9] 	109970
scalar abilene_cost_network.node[9].content_store 	decision_ratio[9] 	0.0098501764748253
scalar abilene_cost_network.node[10].core_layer 	interests[10] 	137879
scalar abilene_cost_network.node[10].core_layer 	data[10] 	123092
scalar abilene_cost_network.node[10].content_store 	p_hit[10] 	0.10724620863221
scalar abilene_cost_network.node[10].content_store 	hits[10] 	14787
scalar abilene_cost_network.node[10].content_store 	misses[10] 	123092
scalar abilene_cost_network.node[10].content_store 	decision_yes[10] 	1287
scalar abilene_cost_network.node[10].content_store 	decision_no[10] 	121805
scalar abilene_cost_network.node[10].content_store 	decision_ratio[10] 	0.010455594189712
scalar abilene_cost_network.node[11].core_layer 	interests[11] 	86095
scalar abilene_cost_network.node[11].core_layer 	repo_load[11] 	86095
scalar abilene_cost_network.node[11].core_layer 	data[11] 	0
scalar abilene_cost_network.node[11].content_store 	p_hit[11] 	0
scalar abilene_cost_network.node[11].content_store 	hits[11] 	0
scalar abilene_cost_network.node[11].content_store 	misses[11] 	86095
scalar abilene_cost_network.node[11].content_store 	decision_yes[11] 	0
scalar abilene_cost_network.node[11].content_store 	decision_no[11] 	86095
scalar abilene_cost_network.node[11].content_store 	decision_ratio[11] 	0
scalar abilene_cost_network.node[12].core_layer 	interests[12] 	78427
scalar abilene_cost_network.node[12].core_layer 	repo_load[12] 	78427
scalar abilene_cost_network.node[12].core_layer 	data[12] 	0
scalar abilene_cost_network.node[12].content_store 	p_hit[12] 	0
scalar abilene_cost_network.node[12].content_store 	hits[12] 	0
scalar abilene_cost_network.node[12].content_store 	misses[12] 	78427
scalar abilene_cost_network.node[12].content_store 	decision_yes[12] 	0
scalar abilene_cost_network.node[12].content_store 	decision_no[12] 	78427
scalar abilene_cost_network.node[12].content_store 	decision_ratio[12] 	0
scalar abilene_cost_network.node[13].core_layer 	interests[13] 	82725
scalar abilene_cost_network.node[13].core_layer 	repo_load[13] 	82725
scalar abilene_cost_network.node[13].core_layer 	data[13] 	0
scalar abilene_cost_network.node[13].content_store 	p_hit[13] 	0
scalar abilene_cost_network.node[13].content_store 	hits[13] 	0
scalar abilene_cost_network.node[13].content_store 	misses[13] 	82725
scalar abilene_cost_network.node[13].content_store 	decision_yes[13] 	0
scalar abilene_cost_network.node[13].content_store 	decision_no[13] 	82725
scalar abilene_cost_network.node[13].content_store 	decision_ratio[13] 	0
scalar abilene_cost_network.client[0] 	hdistance[0] 	2.1369550547385
scalar abilene_cost_network.client[0] 	downloads[0] 	179307
scalar abilene_cost_network.client[0] 	avg_time[0] 	0.009086623442
scalar abilene_cost_network.client[0] 	interests_sent[0] 	179337
scalar abilene_cost_network.client[5] 	hdistance[5] 	2.9313740207607
scalar abilene_cost_network.client[5] 	downloads[5] 	179859
scalar abilene_cost_network.client[5] 	avg_time[5] 	0.010755873365
scalar abilene_cost_network.client[5] 	interests_sent[5] 	179900
scalar abilene_cost_network.client[9] 	hdistance[9] 	1.9459144487114
scalar abilene_cost_network.client[9] 	downloads[9] 	180196
scalar abilene_cost_network.client[9] 	avg_time[9] 	0.008142821583
scalar abilene_cost_network.client[9] 	interests_sent[9] 	180229
