version 2
run General-26-20140626-17:46:27-10845
attr D fix0.01
attr F nrr
attr R lru
attr a 1
attr configname General
attr csize 1e3
attr ctlg 1e5
attr datetime 20140626-17:46:27
attr experiment General
attr inifile omnetpp.ini
attr iterationvars "$net=abilene_cost, $rep=4, $priceratiovalue=10, $weights=0.333_0.333_0.334, $lambda=100, $a=1, $ctlg=1e5, $F=nrr, $ttl=1000, $D=fix0.01, $xi=1, $R=lru, $csize=1e3, $pricebits=0, $mytime=1800"
attr iterationvars2 "$net=abilene_cost, $rep=4, $priceratiovalue=10, $weights=0.333_0.333_0.334, $lambda=100, $a=1, $ctlg=1e5, $F=nrr, $ttl=1000, $D=fix0.01, $xi=1, $R=lru, $csize=1e3, $pricebits=0, $mytime=1800, $repetition=0"
attr lambda 100
attr measurement "$net=abilene_cost, $rep=4, $priceratiovalue=10, $weights=0.333_0.333_0.334, $lambda=100, $a=1, $ctlg=1e5, $F=nrr, $ttl=1000, $D=fix0.01, $xi=1, $R=lru, $csize=1e3, $pricebits=0, $mytime=1800"
attr mytime 1800
attr net abilene_cost
attr network "networks.${net=geant_cost, abilene_cost}_network"
attr pricebits 0
attr priceratiovalue 10
attr processid 10845
attr rep 4
attr repetition 0
attr replication #0
attr resultdir results
attr runnumber 26
attr seedset 4
attr ttl 1000
attr weights 0.333_0.333_0.334
attr xi 1

scalar . 	a 	1
scalar . 	csize 	1e3
scalar . 	ctlg 	1e5
scalar . 	lambda 	100
scalar . 	mytime 	1800
scalar . 	pricebits 	0
scalar . 	priceratiovalue 	10
scalar . 	rep 	4
scalar . 	ttl 	1000
scalar . 	xi 	1
scalar abilene_cost_network.content_distribution 	repo-0 	11
scalar abilene_cost_network.content_distribution 	repo-1 	12
scalar abilene_cost_network.content_distribution 	repo-2 	13
scalar abilene_cost_network.content_distribution 	client-0 	5
scalar abilene_cost_network.content_distribution 	client-1 	0
scalar abilene_cost_network.content_distribution 	client-2 	9
scalar abilene_cost_network.content_distribution 	repo-0_card 	33272
scalar abilene_cost_network.content_distribution 	repo-1_card 	33152
scalar abilene_cost_network.content_distribution 	repo-2_card 	33576
scalar abilene_cost_network.statistics 	repo_popularity[0] 	0.28234107170654
scalar abilene_cost_network.statistics 	repo_popularity[1] 	0.30413978820018
scalar abilene_cost_network.statistics 	repo_popularity[2] 	0.41351914009327
scalar abilene_cost_network.statistics 	stabilization_time 	554.1
scalar abilene_cost_network.node[1].face$o[4].channel 	price[1] 	0
scalar abilene_cost_network.node[1].face$o[4].channel 	represented_price[1] 	0
scalar abilene_cost_network.node[7].face$o[4].channel 	price[7] 	0
scalar abilene_cost_network.node[7].face$o[4].channel 	represented_price[7] 	0
scalar abilene_cost_network.node[10].face$o[4].channel 	price[10] 	0
scalar abilene_cost_network.node[10].face$o[4].channel 	represented_price[10] 	0
scalar abilene_cost_network.node[11].face$o[1].channel 	price[11] 	0
scalar abilene_cost_network.node[11].face$o[1].channel 	represented_price[11] 	0
scalar abilene_cost_network.node[12].face$o[1].channel 	price[12] 	1
scalar abilene_cost_network.node[12].face$o[1].channel 	represented_price[12] 	1
scalar abilene_cost_network.node[13].face$o[1].channel 	price[13] 	10
scalar abilene_cost_network.node[13].face$o[1].channel 	represented_price[13] 	10
scalar abilene_cost_network.statistics 	p_hit 	0.18782002095472
scalar abilene_cost_network.statistics 	interests 	111055.78571429
scalar abilene_cost_network.statistics 	data 	72420
scalar abilene_cost_network.statistics 	hdistance 	2.334996642257
scalar abilene_cost_network.statistics 	avg_time 	0.009284696769
scalar abilene_cost_network.statistics 	downloads 	540807
scalar abilene_cost_network.statistics 	total_cost 	926264
scalar abilene_cost_network.statistics 	total_replicas 	100000
scalar abilene_cost_network.statistics 	inner_hit 	0.53996897229511
scalar abilene_cost_network.statistics 	interests_sent 	540898
scalar abilene_cost_network.node[0].core_layer 	interests[0] 	183508
scalar abilene_cost_network.node[0].core_layer 	data[0] 	110476
scalar abilene_cost_network.node[0].core_layer 	repo_int[0] 	248788
scalar abilene_cost_network.node[0].content_store 	p_hit[0] 	0.39777557381695
scalar abilene_cost_network.node[0].content_store 	hits[0] 	72995
scalar abilene_cost_network.node[0].content_store 	misses[0] 	110513
scalar abilene_cost_network.node[0].content_store 	decision_yes[0] 	1131
scalar abilene_cost_network.node[0].content_store 	decision_no[0] 	109345
scalar abilene_cost_network.node[0].content_store 	decision_ratio[0] 	0.010237517650893
scalar abilene_cost_network.node[1].core_layer 	interests[1] 	162435
scalar abilene_cost_network.node[1].core_layer 	data[1] 	153172
scalar abilene_cost_network.node[1].content_store 	p_hit[1] 	0.057019730969311
scalar abilene_cost_network.node[1].content_store 	hits[1] 	9262
scalar abilene_cost_network.node[1].content_store 	misses[1] 	153173
scalar abilene_cost_network.node[1].content_store 	decision_yes[1] 	1560
scalar abilene_cost_network.node[1].content_store 	decision_no[1] 	151612
scalar abilene_cost_network.node[1].content_store 	decision_ratio[1] 	0.010184629044473
scalar abilene_cost_network.node[2].core_layer 	interests[2] 	106817
scalar abilene_cost_network.node[2].core_layer 	data[2] 	97159
scalar abilene_cost_network.node[2].content_store 	p_hit[2] 	0.090406957694
scalar abilene_cost_network.node[2].content_store 	hits[2] 	9657
scalar abilene_cost_network.node[2].content_store 	misses[2] 	97160
scalar abilene_cost_network.node[2].content_store 	decision_yes[2] 	957
scalar abilene_cost_network.node[2].content_store 	decision_no[2] 	96202
scalar abilene_cost_network.node[2].content_store 	decision_ratio[2] 	0.0098498337776222
scalar abilene_cost_network.node[3].core_layer 	interests[3] 	100255
scalar abilene_cost_network.node[3].core_layer 	data[3] 	91961
scalar abilene_cost_network.node[3].content_store 	p_hit[3] 	0.082719066380729
scalar abilene_cost_network.node[3].content_store 	hits[3] 	8293
scalar abilene_cost_network.node[3].content_store 	misses[3] 	91962
scalar abilene_cost_network.node[3].content_store 	decision_yes[3] 	969
scalar abilene_cost_network.node[3].content_store 	decision_no[3] 	90992
scalar abilene_cost_network.node[3].content_store 	decision_ratio[3] 	0.010537075499396
scalar abilene_cost_network.node[4].core_layer 	interests[4] 	73287
scalar abilene_cost_network.node[4].core_layer 	data[4] 	66881
scalar abilene_cost_network.node[4].content_store 	p_hit[4] 	0.087396127553318
scalar abilene_cost_network.node[4].content_store 	hits[4] 	6405
scalar abilene_cost_network.node[4].content_store 	misses[4] 	66882
scalar abilene_cost_network.node[4].content_store 	decision_yes[4] 	621
scalar abilene_cost_network.node[4].content_store 	decision_no[4] 	66260
scalar abilene_cost_network.node[4].content_store 	decision_ratio[4] 	0.0092851482483815
scalar abilene_cost_network.node[5].core_layer 	interests[5] 	180514
scalar abilene_cost_network.node[5].core_layer 	data[5] 	109980
scalar abilene_cost_network.node[5].content_store 	p_hit[5] 	0.39054588563768
scalar abilene_cost_network.node[5].content_store 	hits[5] 	70499
scalar abilene_cost_network.node[5].content_store 	misses[5] 	110015
scalar abilene_cost_network.node[5].content_store 	decision_yes[5] 	1104
scalar abilene_cost_network.node[5].content_store 	decision_no[5] 	108876
scalar abilene_cost_network.node[5].content_store 	decision_ratio[5] 	0.010038188761593
scalar abilene_cost_network.node[6].core_layer 	interests[6] 	39570
scalar abilene_cost_network.node[6].core_layer 	data[6] 	32493
scalar abilene_cost_network.node[6].content_store 	p_hit[6] 	0.17884761182714
scalar abilene_cost_network.node[6].content_store 	hits[6] 	7077
scalar abilene_cost_network.node[6].content_store 	misses[6] 	32493
scalar abilene_cost_network.node[6].content_store 	decision_yes[6] 	332
scalar abilene_cost_network.node[6].content_store 	decision_no[6] 	32161
scalar abilene_cost_network.node[6].content_store 	decision_ratio[6] 	0.01021758532607
scalar abilene_cost_network.node[7].core_layer 	interests[7] 	89286
scalar abilene_cost_network.node[7].core_layer 	data[7] 	82311
scalar abilene_cost_network.node[7].content_store 	p_hit[7] 	0.0781197500168
scalar abilene_cost_network.node[7].content_store 	hits[7] 	6975
scalar abilene_cost_network.node[7].content_store 	misses[7] 	82311
scalar abilene_cost_network.node[7].content_store 	decision_yes[7] 	800
scalar abilene_cost_network.node[7].content_store 	decision_no[7] 	81511
scalar abilene_cost_network.node[7].content_store 	decision_ratio[7] 	0.0097192355821215
scalar abilene_cost_network.node[8].core_layer 	interests[8] 	47017
scalar abilene_cost_network.node[8].core_layer 	data[8] 	36731
scalar abilene_cost_network.node[8].content_store 	p_hit[8] 	0.21879320245869
scalar abilene_cost_network.node[8].content_store 	hits[8] 	10287
scalar abilene_cost_network.node[8].content_store 	misses[8] 	36730
scalar abilene_cost_network.node[8].content_store 	decision_yes[8] 	357
scalar abilene_cost_network.node[8].content_store 	decision_no[8] 	36374
scalar abilene_cost_network.node[8].content_store 	decision_ratio[8] 	0.0097193106640168
scalar abilene_cost_network.node[9].core_layer 	interests[9] 	184488
scalar abilene_cost_network.node[9].core_layer 	data[9] 	109283
scalar abilene_cost_network.node[9].content_store 	p_hit[9] 	0.40753870170418
scalar abilene_cost_network.node[9].content_store 	hits[9] 	75186
scalar abilene_cost_network.node[9].content_store 	misses[9] 	109302
scalar abilene_cost_network.node[9].content_store 	decision_yes[9] 	1096
scalar abilene_cost_network.node[9].content_store 	decision_no[9] 	108187
scalar abilene_cost_network.node[9].content_store 	decision_ratio[9] 	0.010029007256389
scalar abilene_cost_network.node[10].core_layer 	interests[10] 	138816
scalar abilene_cost_network.node[10].core_layer 	data[10] 	123433
scalar abilene_cost_network.node[10].content_store 	p_hit[10] 	0.11081575610881
scalar abilene_cost_network.node[10].content_store 	hits[10] 	15383
scalar abilene_cost_network.node[10].content_store 	misses[10] 	123433
scalar abilene_cost_network.node[10].content_store 	decision_yes[10] 	1265
scalar abilene_cost_network.node[10].content_store 	decision_no[10] 	122168
scalar abilene_cost_network.node[10].content_store 	decision_ratio[10] 	0.01024847488111
scalar abilene_cost_network.node[11].core_layer 	interests[11] 	87191
scalar abilene_cost_network.node[11].core_layer 	repo_load[11] 	87191
scalar abilene_cost_network.node[11].core_layer 	data[11] 	0
scalar abilene_cost_network.node[11].content_store 	p_hit[11] 	0
scalar abilene_cost_network.node[11].content_store 	hits[11] 	0
scalar abilene_cost_network.node[11].content_store 	misses[11] 	87191
scalar abilene_cost_network.node[11].content_store 	decision_yes[11] 	0
scalar abilene_cost_network.node[11].content_store 	decision_no[11] 	87191
scalar abilene_cost_network.node[11].content_store 	decision_ratio[11] 	0
scalar abilene_cost_network.node[12].core_layer 	interests[12] 	76634
scalar abilene_cost_network.node[12].core_layer 	repo_load[12] 	76634
scalar abilene_cost_network.node[12].core_layer 	data[12] 	0
scalar abilene_cost_network.node[12].content_store 	p_hit[12] 	0
scalar abilene_cost_network.node[12].content_store 	hits[12] 	0
scalar abilene_cost_network.node[12].content_store 	misses[12] 	76634
scalar abilene_cost_network.node[12].content_store 	decision_yes[12] 	0
scalar abilene_cost_network.node[12].content_store 	decision_no[12] 	76634
scalar abilene_cost_network.node[12].content_store 	decision_ratio[12] 	0
scalar abilene_cost_network.node[13].core_layer 	interests[13] 	84963
scalar abilene_cost_network.node[13].core_layer 	repo_load[13] 	84963
scalar abilene_cost_network.node[13].core_layer 	data[13] 	0
scalar abilene_cost_network.node[13].content_store 	p_hit[13] 	0
scalar abilene_cost_network.node[13].content_store 	hits[13] 	0
scalar abilene_cost_network.node[13].content_store 	misses[13] 	84963
scalar abilene_cost_network.node[13].content_store 	decision_yes[13] 	0
scalar abilene_cost_network.node[13].content_store 	decision_no[13] 	84963
scalar abilene_cost_network.node[13].content_store 	decision_ratio[13] 	0
scalar abilene_cost_network.client[0] 	hdistance[0] 	2.1158544019686
scalar abilene_cost_network.client[0] 	downloads[0] 	180442
scalar abilene_cost_network.client[0] 	avg_time[0] 	0.008946076996
scalar abilene_cost_network.client[0] 	interests_sent[0] 	180479
scalar abilene_cost_network.client[5] 	hdistance[5] 	2.9548482728757
scalar abilene_cost_network.client[5] 	downloads[5] 	180126
scalar abilene_cost_network.client[5] 	avg_time[5] 	0.010922026655
scalar abilene_cost_network.client[5] 	interests_sent[5] 	180161
scalar abilene_cost_network.client[9] 	hdistance[9] 	1.9342872519266
scalar abilene_cost_network.client[9] 	downloads[9] 	180239
scalar abilene_cost_network.client[9] 	avg_time[9] 	0.007985986658
scalar abilene_cost_network.client[9] 	interests_sent[9] 	180258
