version 2
run General-718-20140502-14:37:53-17206
attr D costprob0.005
attr F nrr
attr R lru
attr a 1.2
attr configname General
attr csize 1e3
attr ctlg 1e5
attr datetime 20140502-14:37:53
attr experiment General
attr inifile omnetpp.ini
attr iterationvars "$net=three_caches_scenario_3_links, $rep=5, $priceratiovalue=10, $weights=0.333_0.333_0.334, $a=1.2, $ctlg=1e5, $F=nrr, $ttl=1000, $D=costprob0.005, $xi=1, $R=lru, $csize=1e3"
attr iterationvars2 "$net=three_caches_scenario_3_links, $rep=5, $priceratiovalue=10, $weights=0.333_0.333_0.334, $a=1.2, $ctlg=1e5, $F=nrr, $ttl=1000, $D=costprob0.005, $xi=1, $R=lru, $csize=1e3, $repetition=0"
attr measurement "$net=three_caches_scenario_3_links, $rep=5, $priceratiovalue=10, $weights=0.333_0.333_0.334, $a=1.2, $ctlg=1e5, $F=nrr, $ttl=1000, $D=costprob0.005, $xi=1, $R=lru, $csize=1e3"
attr net three_caches_scenario_3_links
attr network networks.${net=three_caches_scenario_3_links}_network
attr priceratiovalue 10
attr processid 17206
attr rep 5
attr repetition 0
attr replication #0
attr resultdir results
attr runnumber 718
attr seedset 5
attr ttl 1000
attr weights 0.333_0.333_0.334
attr xi 1

scalar . 	a 	1.2
scalar . 	csize 	1e3
scalar . 	ctlg 	1e5
scalar . 	priceratiovalue 	10
scalar . 	rep 	5
scalar . 	ttl 	1000
scalar . 	xi 	1
scalar three_caches_scenario_3_links_network.content_distribution 	repo-0 	4
scalar three_caches_scenario_3_links_network.content_distribution 	repo-1 	5
scalar three_caches_scenario_3_links_network.content_distribution 	repo-2 	6
scalar three_caches_scenario_3_links_network.content_distribution 	client-0 	0
scalar three_caches_scenario_3_links_network.content_distribution 	repo-0_card 	33274
scalar three_caches_scenario_3_links_network.content_distribution 	repo-1_card 	33323
scalar three_caches_scenario_3_links_network.content_distribution 	repo-2_card 	33403
scalar three_caches_scenario_3_links_network.statistics 	p_hit 	0.14470481307003
scalar three_caches_scenario_3_links_network.statistics 	interests 	63499.714285714
scalar three_caches_scenario_3_links_network.statistics 	data 	37891.285714286
scalar three_caches_scenario_3_links_network.statistics 	hdistance 	1.5843388616471
scalar three_caches_scenario_3_links_network.statistics 	avg_time 	0
scalar three_caches_scenario_3_links_network.statistics 	downloads 	179259
scalar three_caches_scenario_3_links_network.statistics 	total_cost 	91344
scalar three_caches_scenario_3_links_network.statistics 	total_replicas 	100000
scalar three_caches_scenario_3_links_network.statistics 	interests_sent 	179259
scalar three_caches_scenario_3_links_network.node[0].core_layer 	interests[0] 	179259
scalar three_caches_scenario_3_links_network.node[0].core_layer 	data[0] 	150301
scalar three_caches_scenario_3_links_network.node[0].core_layer 	repo_int[0] 	114938
scalar three_caches_scenario_3_links_network.node[0].content_store 	p_hit[0] 	0.16154279561975
scalar three_caches_scenario_3_links_network.node[0].content_store 	hits[0] 	28958
scalar three_caches_scenario_3_links_network.node[0].content_store 	misses[0] 	150301
scalar three_caches_scenario_3_links_network.node[0].content_store 	decision_yes[0] 	118
scalar three_caches_scenario_3_links_network.node[0].content_store 	decision_no[0] 	150183
scalar three_caches_scenario_3_links_network.node[1].core_layer 	interests[1] 	96170
scalar three_caches_scenario_3_links_network.node[1].core_layer 	data[1] 	96170
scalar three_caches_scenario_3_links_network.node[1].content_store 	p_hit[1] 	0
scalar three_caches_scenario_3_links_network.node[1].content_store 	hits[1] 	0
scalar three_caches_scenario_3_links_network.node[1].content_store 	misses[1] 	96170
scalar three_caches_scenario_3_links_network.node[1].content_store 	decision_yes[1] 	0
scalar three_caches_scenario_3_links_network.node[1].content_store 	decision_no[1] 	96170
scalar three_caches_scenario_3_links_network.node[2].core_layer 	interests[2] 	31960
scalar three_caches_scenario_3_links_network.node[2].core_layer 	data[2] 	10704
scalar three_caches_scenario_3_links_network.node[2].content_store 	p_hit[2] 	0.66508135168961
scalar three_caches_scenario_3_links_network.node[2].content_store 	hits[2] 	21256
scalar three_caches_scenario_3_links_network.node[2].content_store 	misses[2] 	10704
scalar three_caches_scenario_3_links_network.node[2].content_store 	decision_yes[2] 	16
scalar three_caches_scenario_3_links_network.node[2].content_store 	decision_no[2] 	10688
scalar three_caches_scenario_3_links_network.node[3].core_layer 	interests[3] 	22171
scalar three_caches_scenario_3_links_network.node[3].core_layer 	data[3] 	8064
scalar three_caches_scenario_3_links_network.node[3].content_store 	p_hit[3] 	0.6362816291552
scalar three_caches_scenario_3_links_network.node[3].content_store 	hits[3] 	14107
scalar three_caches_scenario_3_links_network.node[3].content_store 	misses[3] 	8064
scalar three_caches_scenario_3_links_network.node[3].content_store 	decision_yes[3] 	120
scalar three_caches_scenario_3_links_network.node[3].content_store 	decision_no[3] 	7944
scalar three_caches_scenario_3_links_network.node[4].core_layer 	interests[4] 	96170
scalar three_caches_scenario_3_links_network.node[4].core_layer 	repo_load[4] 	96170
scalar three_caches_scenario_3_links_network.node[4].core_layer 	data[4] 	0
scalar three_caches_scenario_3_links_network.node[4].content_store 	p_hit[4] 	0
scalar three_caches_scenario_3_links_network.node[4].content_store 	hits[4] 	0
scalar three_caches_scenario_3_links_network.node[4].content_store 	misses[4] 	96170
scalar three_caches_scenario_3_links_network.node[4].content_store 	decision_yes[4] 	0
scalar three_caches_scenario_3_links_network.node[4].content_store 	decision_no[4] 	96170
scalar three_caches_scenario_3_links_network.node[5].core_layer 	interests[5] 	10704
scalar three_caches_scenario_3_links_network.node[5].core_layer 	repo_load[5] 	10704
scalar three_caches_scenario_3_links_network.node[5].core_layer 	data[5] 	0
scalar three_caches_scenario_3_links_network.node[5].content_store 	p_hit[5] 	0
scalar three_caches_scenario_3_links_network.node[5].content_store 	hits[5] 	0
scalar three_caches_scenario_3_links_network.node[5].content_store 	misses[5] 	10704
scalar three_caches_scenario_3_links_network.node[5].content_store 	decision_yes[5] 	0
scalar three_caches_scenario_3_links_network.node[5].content_store 	decision_no[5] 	10704
scalar three_caches_scenario_3_links_network.node[6].core_layer 	interests[6] 	8064
scalar three_caches_scenario_3_links_network.node[6].core_layer 	repo_load[6] 	8064
scalar three_caches_scenario_3_links_network.node[6].core_layer 	data[6] 	0
scalar three_caches_scenario_3_links_network.node[6].content_store 	p_hit[6] 	0
scalar three_caches_scenario_3_links_network.node[6].content_store 	hits[6] 	0
scalar three_caches_scenario_3_links_network.node[6].content_store 	misses[6] 	8064
scalar three_caches_scenario_3_links_network.node[6].content_store 	decision_yes[6] 	0
scalar three_caches_scenario_3_links_network.node[6].content_store 	decision_no[6] 	8064
scalar three_caches_scenario_3_links_network.client[0] 	hdistance[0] 	1.5843388616471
scalar three_caches_scenario_3_links_network.client[0] 	downloads[0] 	179259
scalar three_caches_scenario_3_links_network.client[0] 	avg_time[0] 	0
scalar three_caches_scenario_3_links_network.client[0] 	interests_sent[0] 	179259
