version 2
run General-1964-20140502-04:49:39-10899
attr D costprob0.001
attr F nrr
attr R lru
attr a 1
attr configname General
attr csize 1e3
attr ctlg 1e5
attr datetime 20140502-04:49:39
attr experiment General
attr inifile omnetpp.ini
attr iterationvars "$net=three_caches_scenario_3_links, $rep=4, $priceratiovalue=2, $weights=0.7_0.15_0.15, $a=1, $ctlg=1e5, $F=nrr, $ttl=1000, $D=costprob0.001, $xi=1, $R=lru, $csize=1e3"
attr iterationvars2 "$net=three_caches_scenario_3_links, $rep=4, $priceratiovalue=2, $weights=0.7_0.15_0.15, $a=1, $ctlg=1e5, $F=nrr, $ttl=1000, $D=costprob0.001, $xi=1, $R=lru, $csize=1e3, $repetition=0"
attr measurement "$net=three_caches_scenario_3_links, $rep=4, $priceratiovalue=2, $weights=0.7_0.15_0.15, $a=1, $ctlg=1e5, $F=nrr, $ttl=1000, $D=costprob0.001, $xi=1, $R=lru, $csize=1e3"
attr net three_caches_scenario_3_links
attr network networks.${net=three_caches_scenario_3_links}_network
attr priceratiovalue 2
attr processid 10899
attr rep 4
attr repetition 0
attr replication #0
attr resultdir results
attr runnumber 1964
attr seedset 4
attr ttl 1000
attr weights 0.7_0.15_0.15
attr xi 1

scalar . 	a 	1
scalar . 	csize 	1e3
scalar . 	ctlg 	1e5
scalar . 	priceratiovalue 	2
scalar . 	rep 	4
scalar . 	ttl 	1000
scalar . 	xi 	1
scalar three_caches_scenario_3_links_network.content_distribution 	repo-0 	4
scalar three_caches_scenario_3_links_network.content_distribution 	repo-1 	5
scalar three_caches_scenario_3_links_network.content_distribution 	repo-2 	6
scalar three_caches_scenario_3_links_network.content_distribution 	client-0 	0
scalar three_caches_scenario_3_links_network.content_distribution 	repo-0_card 	70058
scalar three_caches_scenario_3_links_network.content_distribution 	repo-1_card 	14957
scalar three_caches_scenario_3_links_network.content_distribution 	repo-2_card 	14985
scalar three_caches_scenario_3_links_network.statistics 	p_hit 	0.044943598876312
scalar three_caches_scenario_3_links_network.statistics 	interests 	72516.285714286
scalar three_caches_scenario_3_links_network.statistics 	data 	46762.571428571
scalar three_caches_scenario_3_links_network.statistics 	hdistance 	1.9156903858528
scalar three_caches_scenario_3_links_network.statistics 	avg_time 	0
scalar three_caches_scenario_3_links_network.statistics 	downloads 	180276
scalar three_caches_scenario_3_links_network.statistics 	total_cost 	26471
scalar three_caches_scenario_3_links_network.statistics 	total_replicas 	100000
scalar three_caches_scenario_3_links_network.statistics 	interests_sent 	180276
scalar three_caches_scenario_3_links_network.node[0].core_layer 	interests[0] 	180276
scalar three_caches_scenario_3_links_network.node[0].core_layer 	data[0] 	169876
scalar three_caches_scenario_3_links_network.node[0].core_layer 	repo_int[0] 	157462
scalar three_caches_scenario_3_links_network.node[0].content_store 	p_hit[0] 	0.057689320819188
scalar three_caches_scenario_3_links_network.node[0].content_store 	hits[0] 	10400
scalar three_caches_scenario_3_links_network.node[0].content_store 	misses[0] 	169876
scalar three_caches_scenario_3_links_network.node[0].content_store 	decision_yes[0] 	54
scalar three_caches_scenario_3_links_network.node[0].content_store 	decision_no[0] 	169822
scalar three_caches_scenario_3_links_network.node[1].core_layer 	interests[1] 	139447
scalar three_caches_scenario_3_links_network.node[1].core_layer 	data[1] 	139447
scalar three_caches_scenario_3_links_network.node[1].content_store 	p_hit[1] 	0
scalar three_caches_scenario_3_links_network.node[1].content_store 	hits[1] 	0
scalar three_caches_scenario_3_links_network.node[1].content_store 	misses[1] 	139447
scalar three_caches_scenario_3_links_network.node[1].content_store 	decision_yes[1] 	0
scalar three_caches_scenario_3_links_network.node[1].content_store 	decision_no[1] 	139447
scalar three_caches_scenario_3_links_network.node[2].core_layer 	interests[2] 	14344
scalar three_caches_scenario_3_links_network.node[2].core_layer 	data[2] 	9559
scalar three_caches_scenario_3_links_network.node[2].content_store 	p_hit[2] 	0.33358895705521
scalar three_caches_scenario_3_links_network.node[2].content_store 	hits[2] 	4785
scalar three_caches_scenario_3_links_network.node[2].content_store 	misses[2] 	9559
scalar three_caches_scenario_3_links_network.node[2].content_store 	decision_yes[2] 	24
scalar three_caches_scenario_3_links_network.node[2].content_store 	decision_no[2] 	9535
scalar three_caches_scenario_3_links_network.node[3].core_layer 	interests[3] 	16085
scalar three_caches_scenario_3_links_network.node[3].core_layer 	data[3] 	8456
scalar three_caches_scenario_3_links_network.node[3].content_store 	p_hit[3] 	0.47429281939695
scalar three_caches_scenario_3_links_network.node[3].content_store 	hits[3] 	7629
scalar three_caches_scenario_3_links_network.node[3].content_store 	misses[3] 	8456
scalar three_caches_scenario_3_links_network.node[3].content_store 	decision_yes[3] 	37
scalar three_caches_scenario_3_links_network.node[3].content_store 	decision_no[3] 	8419
scalar three_caches_scenario_3_links_network.node[4].core_layer 	interests[4] 	139447
scalar three_caches_scenario_3_links_network.node[4].core_layer 	repo_load[4] 	139447
scalar three_caches_scenario_3_links_network.node[4].core_layer 	data[4] 	0
scalar three_caches_scenario_3_links_network.node[4].content_store 	p_hit[4] 	0
scalar three_caches_scenario_3_links_network.node[4].content_store 	hits[4] 	0
scalar three_caches_scenario_3_links_network.node[4].content_store 	misses[4] 	139447
scalar three_caches_scenario_3_links_network.node[4].content_store 	decision_yes[4] 	0
scalar three_caches_scenario_3_links_network.node[4].content_store 	decision_no[4] 	139447
scalar three_caches_scenario_3_links_network.node[5].core_layer 	interests[5] 	9559
scalar three_caches_scenario_3_links_network.node[5].core_layer 	repo_load[5] 	9559
scalar three_caches_scenario_3_links_network.node[5].core_layer 	data[5] 	0
scalar three_caches_scenario_3_links_network.node[5].content_store 	p_hit[5] 	0
scalar three_caches_scenario_3_links_network.node[5].content_store 	hits[5] 	0
scalar three_caches_scenario_3_links_network.node[5].content_store 	misses[5] 	9559
scalar three_caches_scenario_3_links_network.node[5].content_store 	decision_yes[5] 	0
scalar three_caches_scenario_3_links_network.node[5].content_store 	decision_no[5] 	9559
scalar three_caches_scenario_3_links_network.node[6].core_layer 	interests[6] 	8456
scalar three_caches_scenario_3_links_network.node[6].core_layer 	repo_load[6] 	8456
scalar three_caches_scenario_3_links_network.node[6].core_layer 	data[6] 	0
scalar three_caches_scenario_3_links_network.node[6].content_store 	p_hit[6] 	0
scalar three_caches_scenario_3_links_network.node[6].content_store 	hits[6] 	0
scalar three_caches_scenario_3_links_network.node[6].content_store 	misses[6] 	8456
scalar three_caches_scenario_3_links_network.node[6].content_store 	decision_yes[6] 	0
scalar three_caches_scenario_3_links_network.node[6].content_store 	decision_no[6] 	8456
scalar three_caches_scenario_3_links_network.client[0] 	hdistance[0] 	1.9156903858528
scalar three_caches_scenario_3_links_network.client[0] 	downloads[0] 	180276
scalar three_caches_scenario_3_links_network.client[0] 	avg_time[0] 	0
scalar three_caches_scenario_3_links_network.client[0] 	interests_sent[0] 	180276
