version 2
run General-1701-20140421-20:40:32-16474
attr D fix0.01
attr F nrr
attr R lru
attr a 0.8
attr configname General
attr csize 10
attr ctlg 10^3
attr datetime 20140421-20:40:32
attr experiment General
attr inifile omnetpp.ini
attr iterationvars "$net=simple_scenario, $rep=34, $priceratiovalue=4, $a=0.8, $ctlg=10^3, $F=nrr, $ttl=1000, $D=fix0.01, $R=lru, $csize=10"
attr iterationvars2 "$net=simple_scenario, $rep=34, $priceratiovalue=4, $a=0.8, $ctlg=10^3, $F=nrr, $ttl=1000, $D=fix0.01, $R=lru, $csize=10, $repetition=0"
attr measurement "$net=simple_scenario, $rep=34, $priceratiovalue=4, $a=0.8, $ctlg=10^3, $F=nrr, $ttl=1000, $D=fix0.01, $R=lru, $csize=10"
attr net simple_scenario
attr network networks.${net=simple_scenario}_network
attr priceratiovalue 4
attr processid 16474
attr rep 34
attr repetition 0
attr replication #0
attr resultdir results
attr runnumber 1701
attr seedset 34
attr ttl 1000

scalar . 	a 	0.8
scalar . 	csize 	10
scalar . 	priceratiovalue 	4
scalar . 	rep 	34
scalar . 	ttl 	1000
scalar simple_scenario_network.content_distribution 	repo-0 	3
scalar simple_scenario_network.content_distribution 	repo-1 	4
scalar simple_scenario_network.content_distribution 	client-0 	0
scalar simple_scenario_network.content_distribution 	repo-0_card 	538
scalar simple_scenario_network.content_distribution 	repo-1_card 	462
scalar simple_scenario_network.statistics 	p_hit 	0.10675655137975
scalar simple_scenario_network.statistics 	interests 	92118
scalar simple_scenario_network.statistics 	data 	55983.6
scalar simple_scenario_network.statistics 	hdistance 	2.2771597148423
scalar simple_scenario_network.statistics 	avg_time 	0.001998019787
scalar simple_scenario_network.statistics 	downloads 	180672
scalar simple_scenario_network.statistics 	total_cost 	63923
scalar simple_scenario_network.node[0].core_layer 	interests[0] 	180672
scalar simple_scenario_network.node[0].core_layer 	data[0] 	148417
scalar simple_scenario_network.node[0].core_layer 	repo_int[0] 	131501
scalar simple_scenario_network.node[0].content_store 	p_hit[0] 	0.17852794013461
scalar simple_scenario_network.node[0].content_store 	hits[0] 	32255
scalar simple_scenario_network.node[0].content_store 	misses[0] 	148417
scalar simple_scenario_network.node[1].core_layer 	interests[1] 	76176
scalar simple_scenario_network.node[1].core_layer 	data[1] 	68796
scalar simple_scenario_network.node[1].content_store 	p_hit[1] 	0.096880907372401
scalar simple_scenario_network.node[1].content_store 	hits[1] 	7380
scalar simple_scenario_network.node[1].content_store 	misses[1] 	68796
scalar simple_scenario_network.node[2].core_layer 	interests[2] 	72241
scalar simple_scenario_network.node[2].core_layer 	data[2] 	62705
scalar simple_scenario_network.node[2].content_store 	p_hit[2] 	0.1320026024003
scalar simple_scenario_network.node[2].content_store 	hits[2] 	9536
scalar simple_scenario_network.node[2].content_store 	misses[2] 	62705
scalar simple_scenario_network.node[3].core_layer 	interests[3] 	68796
scalar simple_scenario_network.node[3].core_layer 	repo_load[3] 	68796
scalar simple_scenario_network.node[3].core_layer 	data[3] 	0
scalar simple_scenario_network.node[3].content_store 	p_hit[3] 	0
scalar simple_scenario_network.node[3].content_store 	hits[3] 	0
scalar simple_scenario_network.node[3].content_store 	misses[3] 	68796
scalar simple_scenario_network.node[4].core_layer 	interests[4] 	62705
scalar simple_scenario_network.node[4].core_layer 	repo_load[4] 	62705
scalar simple_scenario_network.node[4].core_layer 	data[4] 	0
scalar simple_scenario_network.node[4].content_store 	p_hit[4] 	0
scalar simple_scenario_network.node[4].content_store 	hits[4] 	0
scalar simple_scenario_network.node[4].content_store 	misses[4] 	62705
scalar simple_scenario_network.client[0] 	hdistance[0] 	2.2771597148423
scalar simple_scenario_network.client[0] 	downloads[0] 	180672
scalar simple_scenario_network.client[0] 	avg_time[0] 	0.001998019787
