version 2
run General-138-20140428-20:35:32-9473
attr D fix0.01
attr F nrr
attr R lru
attr a 1.2
attr configname General
attr csize 1000
attr ctlg 10^5
attr datetime 20140428-20:35:32
attr experiment General
attr inifile omnetpp.ini
attr iterationvars "$net=one_cache_scenario_with_free_link, $rep=9, $priceratiovalue=5, $a=1.2, $ctlg=10^5, $F=nrr, $ttl=1000, $D=fix0.01, $xi=1, $R=lru, $csize=1000"
attr iterationvars2 "$net=one_cache_scenario_with_free_link, $rep=9, $priceratiovalue=5, $a=1.2, $ctlg=10^5, $F=nrr, $ttl=1000, $D=fix0.01, $xi=1, $R=lru, $csize=1000, $repetition=0"
attr measurement "$net=one_cache_scenario_with_free_link, $rep=9, $priceratiovalue=5, $a=1.2, $ctlg=10^5, $F=nrr, $ttl=1000, $D=fix0.01, $xi=1, $R=lru, $csize=1000"
attr net one_cache_scenario_with_free_link
attr network networks.${net=one_cache_scenario_with_free_link}_network
attr priceratiovalue 5
attr processid 9473
attr rep 9
attr repetition 0
attr replication #0
attr resultdir results
attr runnumber 138
attr seedset 9
attr ttl 1000
attr xi 1

scalar . 	a 	1.2
scalar . 	csize 	1000
scalar . 	priceratiovalue 	5
scalar . 	rep 	9
scalar . 	ttl 	1000
scalar . 	xi 	1
scalar one_cache_scenario_with_free_link_network.content_distribution 	repo-0 	3
scalar one_cache_scenario_with_free_link_network.content_distribution 	repo-1 	4
scalar one_cache_scenario_with_free_link_network.content_distribution 	client-0 	0
scalar one_cache_scenario_with_free_link_network.content_distribution 	repo-0_card 	50255
scalar one_cache_scenario_with_free_link_network.content_distribution 	repo-1_card 	49745
scalar one_cache_scenario_with_free_link_network.statistics 	p_hit 	0.58012943432407
scalar one_cache_scenario_with_free_link_network.statistics 	interests 	50064
scalar one_cache_scenario_with_free_link_network.statistics 	data 	14013.6
scalar one_cache_scenario_with_free_link_network.statistics 	hdistance 	0.38872245522934
scalar one_cache_scenario_with_free_link_network.statistics 	avg_time 	0
scalar one_cache_scenario_with_free_link_network.statistics 	downloads 	180252
scalar one_cache_scenario_with_free_link_network.statistics 	total_cost 	17493
scalar one_cache_scenario_with_free_link_network.statistics 	interests_sent 	180252
scalar one_cache_scenario_with_free_link_network.node[0].core_layer 	interests[0] 	180252
scalar one_cache_scenario_with_free_link_network.node[0].core_layer 	data[0] 	35034
scalar one_cache_scenario_with_free_link_network.node[0].core_layer 	repo_int[0] 	35034
scalar one_cache_scenario_with_free_link_network.node[0].content_store 	p_hit[0] 	0.80563877238533
scalar one_cache_scenario_with_free_link_network.node[0].content_store 	hits[0] 	145218
scalar one_cache_scenario_with_free_link_network.node[0].content_store 	misses[0] 	35034
scalar one_cache_scenario_with_free_link_network.node[0].content_store 	decision_yes[0] 	370
scalar one_cache_scenario_with_free_link_network.node[0].content_store 	decision_no[0] 	34664
scalar one_cache_scenario_with_free_link_network.node[1].core_layer 	interests[1] 	17541
scalar one_cache_scenario_with_free_link_network.node[1].core_layer 	data[1] 	17541
scalar one_cache_scenario_with_free_link_network.node[1].content_store 	p_hit[1] 	0
scalar one_cache_scenario_with_free_link_network.node[1].content_store 	hits[1] 	0
scalar one_cache_scenario_with_free_link_network.node[1].content_store 	misses[1] 	17541
scalar one_cache_scenario_with_free_link_network.node[1].content_store 	decision_yes[1] 	0
scalar one_cache_scenario_with_free_link_network.node[1].content_store 	decision_no[1] 	17541
scalar one_cache_scenario_with_free_link_network.node[2].core_layer 	interests[2] 	17493
scalar one_cache_scenario_with_free_link_network.node[2].core_layer 	data[2] 	17493
scalar one_cache_scenario_with_free_link_network.node[2].content_store 	p_hit[2] 	0
scalar one_cache_scenario_with_free_link_network.node[2].content_store 	hits[2] 	0
scalar one_cache_scenario_with_free_link_network.node[2].content_store 	misses[2] 	17493
scalar one_cache_scenario_with_free_link_network.node[2].content_store 	decision_yes[2] 	0
scalar one_cache_scenario_with_free_link_network.node[2].content_store 	decision_no[2] 	17493
scalar one_cache_scenario_with_free_link_network.node[3].core_layer 	interests[3] 	17541
scalar one_cache_scenario_with_free_link_network.node[3].core_layer 	repo_load[3] 	17541
scalar one_cache_scenario_with_free_link_network.node[3].core_layer 	data[3] 	0
scalar one_cache_scenario_with_free_link_network.node[3].content_store 	p_hit[3] 	0
scalar one_cache_scenario_with_free_link_network.node[3].content_store 	hits[3] 	0
scalar one_cache_scenario_with_free_link_network.node[3].content_store 	misses[3] 	17541
scalar one_cache_scenario_with_free_link_network.node[3].content_store 	decision_yes[3] 	0
scalar one_cache_scenario_with_free_link_network.node[3].content_store 	decision_no[3] 	17541
scalar one_cache_scenario_with_free_link_network.node[4].core_layer 	interests[4] 	17493
scalar one_cache_scenario_with_free_link_network.node[4].core_layer 	repo_load[4] 	17493
scalar one_cache_scenario_with_free_link_network.node[4].core_layer 	data[4] 	0
scalar one_cache_scenario_with_free_link_network.node[4].content_store 	p_hit[4] 	0
scalar one_cache_scenario_with_free_link_network.node[4].content_store 	hits[4] 	0
scalar one_cache_scenario_with_free_link_network.node[4].content_store 	misses[4] 	17493
scalar one_cache_scenario_with_free_link_network.node[4].content_store 	decision_yes[4] 	0
scalar one_cache_scenario_with_free_link_network.node[4].content_store 	decision_no[4] 	17493
scalar one_cache_scenario_with_free_link_network.client[0] 	hdistance[0] 	0.38872245522934
scalar one_cache_scenario_with_free_link_network.client[0] 	downloads[0] 	180252
scalar one_cache_scenario_with_free_link_network.client[0] 	avg_time[0] 	0
scalar one_cache_scenario_with_free_link_network.client[0] 	interests_sent[0] 	180252
