version 2
run General-122-20140428-20:31:07-9445
attr D fix0.01
attr F nrr
attr R lru
attr a 1.2
attr configname General
attr csize 1000
attr ctlg 10^5
attr datetime 20140428-20:31:07
attr experiment General
attr inifile omnetpp.ini
attr iterationvars "$net=one_cache_scenario_with_free_link, $rep=8, $priceratiovalue=5, $a=1.2, $ctlg=10^5, $F=nrr, $ttl=1000, $D=fix0.01, $xi=1, $R=lru, $csize=1000"
attr iterationvars2 "$net=one_cache_scenario_with_free_link, $rep=8, $priceratiovalue=5, $a=1.2, $ctlg=10^5, $F=nrr, $ttl=1000, $D=fix0.01, $xi=1, $R=lru, $csize=1000, $repetition=0"
attr measurement "$net=one_cache_scenario_with_free_link, $rep=8, $priceratiovalue=5, $a=1.2, $ctlg=10^5, $F=nrr, $ttl=1000, $D=fix0.01, $xi=1, $R=lru, $csize=1000"
attr net one_cache_scenario_with_free_link
attr network networks.${net=one_cache_scenario_with_free_link}_network
attr priceratiovalue 5
attr processid 9445
attr rep 8
attr repetition 0
attr replication #0
attr resultdir results
attr runnumber 122
attr seedset 8
attr ttl 1000
attr xi 1

scalar . 	a 	1.2
scalar . 	csize 	1000
scalar . 	priceratiovalue 	5
scalar . 	rep 	8
scalar . 	ttl 	1000
scalar . 	xi 	1
scalar one_cache_scenario_with_free_link_network.content_distribution 	repo-0 	3
scalar one_cache_scenario_with_free_link_network.content_distribution 	repo-1 	4
scalar one_cache_scenario_with_free_link_network.content_distribution 	client-0 	0
scalar one_cache_scenario_with_free_link_network.content_distribution 	repo-0_card 	49902
scalar one_cache_scenario_with_free_link_network.content_distribution 	repo-1_card 	50098
scalar one_cache_scenario_with_free_link_network.statistics 	p_hit 	0.58370873286569
scalar one_cache_scenario_with_free_link_network.statistics 	interests 	49724.8
scalar one_cache_scenario_with_free_link_network.statistics 	data 	13800
scalar one_cache_scenario_with_free_link_network.statistics 	hdistance 	0.38413575023382
scalar one_cache_scenario_with_free_link_network.statistics 	avg_time 	0
scalar one_cache_scenario_with_free_link_network.statistics 	downloads 	179624
scalar one_cache_scenario_with_free_link_network.statistics 	total_cost 	17254
scalar one_cache_scenario_with_free_link_network.statistics 	interests_sent 	179624
scalar one_cache_scenario_with_free_link_network.node[0].core_layer 	interests[0] 	179624
scalar one_cache_scenario_with_free_link_network.node[0].core_layer 	data[0] 	34500
scalar one_cache_scenario_with_free_link_network.node[0].core_layer 	repo_int[0] 	34500
scalar one_cache_scenario_with_free_link_network.node[0].content_store 	p_hit[0] 	0.80793212488309
scalar one_cache_scenario_with_free_link_network.node[0].content_store 	hits[0] 	145124
scalar one_cache_scenario_with_free_link_network.node[0].content_store 	misses[0] 	34500
scalar one_cache_scenario_with_free_link_network.node[0].content_store 	decision_yes[0] 	345
scalar one_cache_scenario_with_free_link_network.node[0].content_store 	decision_no[0] 	34155
scalar one_cache_scenario_with_free_link_network.node[1].core_layer 	interests[1] 	17246
scalar one_cache_scenario_with_free_link_network.node[1].core_layer 	data[1] 	17246
scalar one_cache_scenario_with_free_link_network.node[1].content_store 	p_hit[1] 	0
scalar one_cache_scenario_with_free_link_network.node[1].content_store 	hits[1] 	0
scalar one_cache_scenario_with_free_link_network.node[1].content_store 	misses[1] 	17246
scalar one_cache_scenario_with_free_link_network.node[1].content_store 	decision_yes[1] 	0
scalar one_cache_scenario_with_free_link_network.node[1].content_store 	decision_no[1] 	17246
scalar one_cache_scenario_with_free_link_network.node[2].core_layer 	interests[2] 	17254
scalar one_cache_scenario_with_free_link_network.node[2].core_layer 	data[2] 	17254
scalar one_cache_scenario_with_free_link_network.node[2].content_store 	p_hit[2] 	0
scalar one_cache_scenario_with_free_link_network.node[2].content_store 	hits[2] 	0
scalar one_cache_scenario_with_free_link_network.node[2].content_store 	misses[2] 	17254
scalar one_cache_scenario_with_free_link_network.node[2].content_store 	decision_yes[2] 	0
scalar one_cache_scenario_with_free_link_network.node[2].content_store 	decision_no[2] 	17254
scalar one_cache_scenario_with_free_link_network.node[3].core_layer 	interests[3] 	17246
scalar one_cache_scenario_with_free_link_network.node[3].core_layer 	repo_load[3] 	17246
scalar one_cache_scenario_with_free_link_network.node[3].core_layer 	data[3] 	0
scalar one_cache_scenario_with_free_link_network.node[3].content_store 	p_hit[3] 	0
scalar one_cache_scenario_with_free_link_network.node[3].content_store 	hits[3] 	0
scalar one_cache_scenario_with_free_link_network.node[3].content_store 	misses[3] 	17246
scalar one_cache_scenario_with_free_link_network.node[3].content_store 	decision_yes[3] 	0
scalar one_cache_scenario_with_free_link_network.node[3].content_store 	decision_no[3] 	17246
scalar one_cache_scenario_with_free_link_network.node[4].core_layer 	interests[4] 	17254
scalar one_cache_scenario_with_free_link_network.node[4].core_layer 	repo_load[4] 	17254
scalar one_cache_scenario_with_free_link_network.node[4].core_layer 	data[4] 	0
scalar one_cache_scenario_with_free_link_network.node[4].content_store 	p_hit[4] 	0
scalar one_cache_scenario_with_free_link_network.node[4].content_store 	hits[4] 	0
scalar one_cache_scenario_with_free_link_network.node[4].content_store 	misses[4] 	17254
scalar one_cache_scenario_with_free_link_network.node[4].content_store 	decision_yes[4] 	0
scalar one_cache_scenario_with_free_link_network.node[4].content_store 	decision_no[4] 	17254
scalar one_cache_scenario_with_free_link_network.client[0] 	hdistance[0] 	0.38413575023382
scalar one_cache_scenario_with_free_link_network.client[0] 	downloads[0] 	179624
scalar one_cache_scenario_with_free_link_network.client[0] 	avg_time[0] 	0
scalar one_cache_scenario_with_free_link_network.client[0] 	interests_sent[0] 	179624
