version 2
run General-985-20140502-02:57:41-9888
attr D fix0.1
attr F nrr
attr R lru
attr a 1
attr configname General
attr csize 1e3
attr ctlg 1e5
attr datetime 20140502-02:57:41
attr experiment General
attr inifile omnetpp.ini
attr iterationvars "$net=three_caches_scenario_3_links, $rep=2, $priceratiovalue=5, $weights=0_0.5_0.5, $a=1, $ctlg=1e5, $F=nrr, $ttl=1000, $D=fix0.1, $xi=1, $R=lru, $csize=1e3"
attr iterationvars2 "$net=three_caches_scenario_3_links, $rep=2, $priceratiovalue=5, $weights=0_0.5_0.5, $a=1, $ctlg=1e5, $F=nrr, $ttl=1000, $D=fix0.1, $xi=1, $R=lru, $csize=1e3, $repetition=0"
attr measurement "$net=three_caches_scenario_3_links, $rep=2, $priceratiovalue=5, $weights=0_0.5_0.5, $a=1, $ctlg=1e5, $F=nrr, $ttl=1000, $D=fix0.1, $xi=1, $R=lru, $csize=1e3"
attr net three_caches_scenario_3_links
attr network networks.${net=three_caches_scenario_3_links}_network
attr priceratiovalue 5
attr processid 9888
attr rep 2
attr repetition 0
attr replication #0
attr resultdir results
attr runnumber 985
attr seedset 2
attr ttl 1000
attr weights 0_0.5_0.5
attr xi 1

scalar . 	a 	1
scalar . 	csize 	1e3
scalar . 	ctlg 	1e5
scalar . 	priceratiovalue 	5
scalar . 	rep 	2
scalar . 	ttl 	1000
scalar . 	xi 	1
scalar three_caches_scenario_3_links_network.content_distribution 	repo-0 	4
scalar three_caches_scenario_3_links_network.content_distribution 	repo-1 	5
scalar three_caches_scenario_3_links_network.content_distribution 	repo-2 	6
scalar three_caches_scenario_3_links_network.content_distribution 	client-0 	0
scalar three_caches_scenario_3_links_network.content_distribution 	repo-0_card 	0
scalar three_caches_scenario_3_links_network.content_distribution 	repo-1_card 	50028
scalar three_caches_scenario_3_links_network.content_distribution 	repo-2_card 	49972
scalar three_caches_scenario_3_links_network.statistics 	p_hit 	0.2623742288104
scalar three_caches_scenario_3_links_network.statistics 	interests 	51752.142857143
scalar three_caches_scenario_3_links_network.statistics 	data 	26036.857142857
scalar three_caches_scenario_3_links_network.statistics 	hdistance 	1.4844756037265
scalar three_caches_scenario_3_links_network.statistics 	avg_time 	0
scalar three_caches_scenario_3_links_network.statistics 	downloads 	180007
scalar three_caches_scenario_3_links_network.statistics 	total_cost 	255238
scalar three_caches_scenario_3_links_network.statistics 	total_replicas 	100000
scalar three_caches_scenario_3_links_network.statistics 	interests_sent 	180007
scalar three_caches_scenario_3_links_network.node[0].core_layer 	interests[0] 	180007
scalar three_caches_scenario_3_links_network.node[0].core_layer 	data[0] 	97300
scalar three_caches_scenario_3_links_network.node[0].core_layer 	repo_int[0] 	84958
scalar three_caches_scenario_3_links_network.node[0].content_store 	p_hit[0] 	0.45946546523191
scalar three_caches_scenario_3_links_network.node[0].content_store 	hits[0] 	82707
scalar three_caches_scenario_3_links_network.node[0].content_store 	misses[0] 	97300
scalar three_caches_scenario_3_links_network.node[0].content_store 	decision_yes[0] 	9825
scalar three_caches_scenario_3_links_network.node[0].content_store 	decision_no[0] 	87475
scalar three_caches_scenario_3_links_network.node[1].core_layer 	interests[1] 	0
scalar three_caches_scenario_3_links_network.node[1].core_layer 	data[1] 	0
scalar three_caches_scenario_3_links_network.node[1].content_store 	p_hit[1] 	-nan
scalar three_caches_scenario_3_links_network.node[1].content_store 	hits[1] 	0
scalar three_caches_scenario_3_links_network.node[1].content_store 	misses[1] 	0
scalar three_caches_scenario_3_links_network.node[1].content_store 	decision_yes[1] 	0
scalar three_caches_scenario_3_links_network.node[1].content_store 	decision_no[1] 	0
scalar three_caches_scenario_3_links_network.node[2].core_layer 	interests[2] 	48369
scalar three_caches_scenario_3_links_network.node[2].core_layer 	data[2] 	42388
scalar three_caches_scenario_3_links_network.node[2].content_store 	p_hit[2] 	0.12365357977217
scalar three_caches_scenario_3_links_network.node[2].content_store 	hits[2] 	5981
scalar three_caches_scenario_3_links_network.node[2].content_store 	misses[2] 	42388
scalar three_caches_scenario_3_links_network.node[2].content_store 	decision_yes[2] 	4327
scalar three_caches_scenario_3_links_network.node[2].content_store 	decision_no[2] 	38061
scalar three_caches_scenario_3_links_network.node[3].core_layer 	interests[3] 	48931
scalar three_caches_scenario_3_links_network.node[3].core_layer 	data[3] 	42570
scalar three_caches_scenario_3_links_network.node[3].content_store 	p_hit[3] 	0.12999938689175
scalar three_caches_scenario_3_links_network.node[3].content_store 	hits[3] 	6361
scalar three_caches_scenario_3_links_network.node[3].content_store 	misses[3] 	42570
scalar three_caches_scenario_3_links_network.node[3].content_store 	decision_yes[3] 	4365
scalar three_caches_scenario_3_links_network.node[3].content_store 	decision_no[3] 	38205
scalar three_caches_scenario_3_links_network.node[4].core_layer 	interests[4] 	0
scalar three_caches_scenario_3_links_network.node[4].core_layer 	data[4] 	0
scalar three_caches_scenario_3_links_network.node[4].content_store 	p_hit[4] 	-nan
scalar three_caches_scenario_3_links_network.node[4].content_store 	hits[4] 	0
scalar three_caches_scenario_3_links_network.node[4].content_store 	misses[4] 	0
scalar three_caches_scenario_3_links_network.node[4].content_store 	decision_yes[4] 	0
scalar three_caches_scenario_3_links_network.node[4].content_store 	decision_no[4] 	0
scalar three_caches_scenario_3_links_network.node[5].core_layer 	interests[5] 	42388
scalar three_caches_scenario_3_links_network.node[5].core_layer 	repo_load[5] 	42388
scalar three_caches_scenario_3_links_network.node[5].core_layer 	data[5] 	0
scalar three_caches_scenario_3_links_network.node[5].content_store 	p_hit[5] 	0
scalar three_caches_scenario_3_links_network.node[5].content_store 	hits[5] 	0
scalar three_caches_scenario_3_links_network.node[5].content_store 	misses[5] 	42388
scalar three_caches_scenario_3_links_network.node[5].content_store 	decision_yes[5] 	0
scalar three_caches_scenario_3_links_network.node[5].content_store 	decision_no[5] 	42388
scalar three_caches_scenario_3_links_network.node[6].core_layer 	interests[6] 	42570
scalar three_caches_scenario_3_links_network.node[6].core_layer 	repo_load[6] 	42570
scalar three_caches_scenario_3_links_network.node[6].core_layer 	data[6] 	0
scalar three_caches_scenario_3_links_network.node[6].content_store 	p_hit[6] 	0
scalar three_caches_scenario_3_links_network.node[6].content_store 	hits[6] 	0
scalar three_caches_scenario_3_links_network.node[6].content_store 	misses[6] 	42570
scalar three_caches_scenario_3_links_network.node[6].content_store 	decision_yes[6] 	0
scalar three_caches_scenario_3_links_network.node[6].content_store 	decision_no[6] 	42570
scalar three_caches_scenario_3_links_network.client[0] 	hdistance[0] 	1.4844756037265
scalar three_caches_scenario_3_links_network.client[0] 	downloads[0] 	180007
scalar three_caches_scenario_3_links_network.client[0] 	avg_time[0] 	0
scalar three_caches_scenario_3_links_network.client[0] 	interests_sent[0] 	180007
