version 2
run General-273-20140502-10:17:46-13354
attr D fix0.001
attr F nrr
attr R lru
attr a 1
attr configname General
attr csize 1e3
attr ctlg 1e5
attr datetime 20140502-10:17:46
attr experiment General
attr inifile omnetpp.ini
attr iterationvars "$net=three_caches_scenario_3_links, $rep=2, $priceratiovalue=10, $weights=0.333_0.333_0.334, $a=1, $ctlg=1e5, $F=nrr, $ttl=1000, $D=fix0.001, $xi=1, $R=lru, $csize=1e3"
attr iterationvars2 "$net=three_caches_scenario_3_links, $rep=2, $priceratiovalue=10, $weights=0.333_0.333_0.334, $a=1, $ctlg=1e5, $F=nrr, $ttl=1000, $D=fix0.001, $xi=1, $R=lru, $csize=1e3, $repetition=0"
attr measurement "$net=three_caches_scenario_3_links, $rep=2, $priceratiovalue=10, $weights=0.333_0.333_0.334, $a=1, $ctlg=1e5, $F=nrr, $ttl=1000, $D=fix0.001, $xi=1, $R=lru, $csize=1e3"
attr net three_caches_scenario_3_links
attr network networks.${net=three_caches_scenario_3_links}_network
attr priceratiovalue 10
attr processid 13354
attr rep 2
attr repetition 0
attr replication #0
attr resultdir results
attr runnumber 273
attr seedset 2
attr ttl 1000
attr weights 0.333_0.333_0.334
attr xi 1

scalar . 	a 	1
scalar . 	csize 	1e3
scalar . 	ctlg 	1e5
scalar . 	priceratiovalue 	10
scalar . 	rep 	2
scalar . 	ttl 	1000
scalar . 	xi 	1
scalar three_caches_scenario_3_links_network.content_distribution 	repo-0 	4
scalar three_caches_scenario_3_links_network.content_distribution 	repo-1 	5
scalar three_caches_scenario_3_links_network.content_distribution 	repo-2 	6
scalar three_caches_scenario_3_links_network.content_distribution 	client-0 	0
scalar three_caches_scenario_3_links_network.content_distribution 	repo-0_card 	33264
scalar three_caches_scenario_3_links_network.content_distribution 	repo-1_card 	33272
scalar three_caches_scenario_3_links_network.content_distribution 	repo-2_card 	33464
scalar three_caches_scenario_3_links_network.statistics 	p_hit 	0.26852905557101
scalar three_caches_scenario_3_links_network.statistics 	interests 	50841
scalar three_caches_scenario_3_links_network.statistics 	data 	25104.714285714
scalar three_caches_scenario_3_links_network.statistics 	hdistance 	1.2769796951497
scalar three_caches_scenario_3_links_network.statistics 	avg_time 	0
scalar three_caches_scenario_3_links_network.statistics 	downloads 	180154
scalar three_caches_scenario_3_links_network.statistics 	total_cost 	303332
scalar three_caches_scenario_3_links_network.statistics 	total_replicas 	100000
scalar three_caches_scenario_3_links_network.statistics 	interests_sent 	180154
scalar three_caches_scenario_3_links_network.node[0].core_layer 	interests[0] 	180154
scalar three_caches_scenario_3_links_network.node[0].core_layer 	data[0] 	91145
scalar three_caches_scenario_3_links_network.node[0].core_layer 	repo_int[0] 	84588
scalar three_caches_scenario_3_links_network.node[0].content_store 	p_hit[0] 	0.49407173862362
scalar three_caches_scenario_3_links_network.node[0].content_store 	hits[0] 	89009
scalar three_caches_scenario_3_links_network.node[0].content_store 	misses[0] 	91145
scalar three_caches_scenario_3_links_network.node[0].content_store 	decision_yes[0] 	93
scalar three_caches_scenario_3_links_network.node[0].content_store 	decision_no[0] 	91052
scalar three_caches_scenario_3_links_network.node[1].core_layer 	interests[1] 	30268
scalar three_caches_scenario_3_links_network.node[1].core_layer 	data[1] 	30268
scalar three_caches_scenario_3_links_network.node[1].content_store 	p_hit[1] 	0
scalar three_caches_scenario_3_links_network.node[1].content_store 	hits[1] 	0
scalar three_caches_scenario_3_links_network.node[1].content_store 	misses[1] 	30268
scalar three_caches_scenario_3_links_network.node[1].content_store 	decision_yes[1] 	0
scalar three_caches_scenario_3_links_network.node[1].content_store 	decision_no[1] 	30268
scalar three_caches_scenario_3_links_network.node[2].core_layer 	interests[2] 	30220
scalar three_caches_scenario_3_links_network.node[2].core_layer 	data[2] 	26652
scalar three_caches_scenario_3_links_network.node[2].content_store 	p_hit[2] 	0.1180675049636
scalar three_caches_scenario_3_links_network.node[2].content_store 	hits[2] 	3568
scalar three_caches_scenario_3_links_network.node[2].content_store 	misses[2] 	26652
scalar three_caches_scenario_3_links_network.node[2].content_store 	decision_yes[2] 	29
scalar three_caches_scenario_3_links_network.node[2].content_store 	decision_no[2] 	26623
scalar three_caches_scenario_3_links_network.node[3].core_layer 	interests[3] 	30657
scalar three_caches_scenario_3_links_network.node[3].core_layer 	data[3] 	27668
scalar three_caches_scenario_3_links_network.node[3].content_store 	p_hit[3] 	0.097498124408781
scalar three_caches_scenario_3_links_network.node[3].content_store 	hits[3] 	2989
scalar three_caches_scenario_3_links_network.node[3].content_store 	misses[3] 	27668
scalar three_caches_scenario_3_links_network.node[3].content_store 	decision_yes[3] 	22
scalar three_caches_scenario_3_links_network.node[3].content_store 	decision_no[3] 	27646
scalar three_caches_scenario_3_links_network.node[4].core_layer 	interests[4] 	30268
scalar three_caches_scenario_3_links_network.node[4].core_layer 	repo_load[4] 	30268
scalar three_caches_scenario_3_links_network.node[4].core_layer 	data[4] 	0
scalar three_caches_scenario_3_links_network.node[4].content_store 	p_hit[4] 	0
scalar three_caches_scenario_3_links_network.node[4].content_store 	hits[4] 	0
scalar three_caches_scenario_3_links_network.node[4].content_store 	misses[4] 	30268
scalar three_caches_scenario_3_links_network.node[4].content_store 	decision_yes[4] 	0
scalar three_caches_scenario_3_links_network.node[4].content_store 	decision_no[4] 	30268
scalar three_caches_scenario_3_links_network.node[5].core_layer 	interests[5] 	26652
scalar three_caches_scenario_3_links_network.node[5].core_layer 	repo_load[5] 	26652
scalar three_caches_scenario_3_links_network.node[5].core_layer 	data[5] 	0
scalar three_caches_scenario_3_links_network.node[5].content_store 	p_hit[5] 	0
scalar three_caches_scenario_3_links_network.node[5].content_store 	hits[5] 	0
scalar three_caches_scenario_3_links_network.node[5].content_store 	misses[5] 	26652
scalar three_caches_scenario_3_links_network.node[5].content_store 	decision_yes[5] 	0
scalar three_caches_scenario_3_links_network.node[5].content_store 	decision_no[5] 	26652
scalar three_caches_scenario_3_links_network.node[6].core_layer 	interests[6] 	27668
scalar three_caches_scenario_3_links_network.node[6].core_layer 	repo_load[6] 	27668
scalar three_caches_scenario_3_links_network.node[6].core_layer 	data[6] 	0
scalar three_caches_scenario_3_links_network.node[6].content_store 	p_hit[6] 	0
scalar three_caches_scenario_3_links_network.node[6].content_store 	hits[6] 	0
scalar three_caches_scenario_3_links_network.node[6].content_store 	misses[6] 	27668
scalar three_caches_scenario_3_links_network.node[6].content_store 	decision_yes[6] 	0
scalar three_caches_scenario_3_links_network.node[6].content_store 	decision_no[6] 	27668
scalar three_caches_scenario_3_links_network.client[0] 	hdistance[0] 	1.2769796951497
scalar three_caches_scenario_3_links_network.client[0] 	downloads[0] 	180154
scalar three_caches_scenario_3_links_network.client[0] 	avg_time[0] 	0
scalar three_caches_scenario_3_links_network.client[0] 	interests_sent[0] 	180154
