version 2
run General-1060-20140502-03:06:20-9964
attr D costprob0.01
attr F nrr
attr R lru
attr a 1
attr configname General
attr csize 1e3
attr ctlg 1e5
attr datetime 20140502-03:06:20
attr experiment General
attr inifile omnetpp.ini
attr iterationvars "$net=three_caches_scenario_3_links, $rep=2, $priceratiovalue=10, $weights=0.2_0.4_0.4, $a=1, $ctlg=1e5, $F=nrr, $ttl=1000, $D=costprob0.01, $xi=1, $R=lru, $csize=1e3"
attr iterationvars2 "$net=three_caches_scenario_3_links, $rep=2, $priceratiovalue=10, $weights=0.2_0.4_0.4, $a=1, $ctlg=1e5, $F=nrr, $ttl=1000, $D=costprob0.01, $xi=1, $R=lru, $csize=1e3, $repetition=0"
attr measurement "$net=three_caches_scenario_3_links, $rep=2, $priceratiovalue=10, $weights=0.2_0.4_0.4, $a=1, $ctlg=1e5, $F=nrr, $ttl=1000, $D=costprob0.01, $xi=1, $R=lru, $csize=1e3"
attr net three_caches_scenario_3_links
attr network networks.${net=three_caches_scenario_3_links}_network
attr priceratiovalue 10
attr processid 9964
attr rep 2
attr repetition 0
attr replication #0
attr resultdir results
attr runnumber 1060
attr seedset 2
attr ttl 1000
attr weights 0.2_0.4_0.4
attr xi 1

scalar . 	a 	1
scalar . 	csize 	1e3
scalar . 	ctlg 	1e5
scalar . 	priceratiovalue 	10
scalar . 	rep 	2
scalar . 	ttl 	1000
scalar . 	xi 	1
scalar three_caches_scenario_3_links_network.content_distribution 	repo-0 	4
scalar three_caches_scenario_3_links_network.content_distribution 	repo-1 	5
scalar three_caches_scenario_3_links_network.content_distribution 	repo-2 	6
scalar three_caches_scenario_3_links_network.content_distribution 	client-0 	0
scalar three_caches_scenario_3_links_network.content_distribution 	repo-0_card 	20021
scalar three_caches_scenario_3_links_network.content_distribution 	repo-1_card 	39941
scalar three_caches_scenario_3_links_network.content_distribution 	repo-2_card 	40038
scalar three_caches_scenario_3_links_network.statistics 	p_hit 	0.2006532976784
scalar three_caches_scenario_3_links_network.statistics 	interests 	59084.857142857
scalar three_caches_scenario_3_links_network.statistics 	data 	33407.714285714
scalar three_caches_scenario_3_links_network.statistics 	hdistance 	1.6403972404584
scalar three_caches_scenario_3_links_network.statistics 	avg_time 	0
scalar three_caches_scenario_3_links_network.statistics 	downloads 	179740
scalar three_caches_scenario_3_links_network.statistics 	total_cost 	314782
scalar three_caches_scenario_3_links_network.statistics 	total_replicas 	100000
scalar three_caches_scenario_3_links_network.statistics 	interests_sent 	179740
scalar three_caches_scenario_3_links_network.node[0].core_layer 	interests[0] 	179740
scalar three_caches_scenario_3_links_network.node[0].core_layer 	data[0] 	137103
scalar three_caches_scenario_3_links_network.node[0].core_layer 	repo_int[0] 	96751
scalar three_caches_scenario_3_links_network.node[0].content_store 	p_hit[0] 	0.23721486591744
scalar three_caches_scenario_3_links_network.node[0].content_store 	hits[0] 	42637
scalar three_caches_scenario_3_links_network.node[0].content_store 	misses[0] 	137103
scalar three_caches_scenario_3_links_network.node[0].content_store 	decision_yes[0] 	717
scalar three_caches_scenario_3_links_network.node[0].content_store 	decision_no[0] 	136386
scalar three_caches_scenario_3_links_network.node[1].core_layer 	interests[1] 	35760
scalar three_caches_scenario_3_links_network.node[1].core_layer 	data[1] 	35760
scalar three_caches_scenario_3_links_network.node[1].content_store 	p_hit[1] 	0
scalar three_caches_scenario_3_links_network.node[1].content_store 	hits[1] 	0
scalar three_caches_scenario_3_links_network.node[1].content_store 	misses[1] 	35760
scalar three_caches_scenario_3_links_network.node[1].content_store 	decision_yes[1] 	0
scalar three_caches_scenario_3_links_network.node[1].content_store 	decision_no[1] 	35760
scalar three_caches_scenario_3_links_network.node[2].core_layer 	interests[2] 	44889
scalar three_caches_scenario_3_links_network.node[2].core_layer 	data[2] 	32792
scalar three_caches_scenario_3_links_network.node[2].content_store 	p_hit[2] 	0.26948695671545
scalar three_caches_scenario_3_links_network.node[2].content_store 	hits[2] 	12097
scalar three_caches_scenario_3_links_network.node[2].content_store 	misses[2] 	32792
scalar three_caches_scenario_3_links_network.node[2].content_store 	decision_yes[2] 	68
scalar three_caches_scenario_3_links_network.node[2].content_store 	decision_no[2] 	32724
scalar three_caches_scenario_3_links_network.node[3].core_layer 	interests[3] 	56454
scalar three_caches_scenario_3_links_network.node[3].core_layer 	data[3] 	28199
scalar three_caches_scenario_3_links_network.node[3].content_store 	p_hit[3] 	0.50049597902717
scalar three_caches_scenario_3_links_network.node[3].content_store 	hits[3] 	28255
scalar three_caches_scenario_3_links_network.node[3].content_store 	misses[3] 	28199
scalar three_caches_scenario_3_links_network.node[3].content_store 	decision_yes[3] 	604
scalar three_caches_scenario_3_links_network.node[3].content_store 	decision_no[3] 	27595
scalar three_caches_scenario_3_links_network.node[4].core_layer 	interests[4] 	35760
scalar three_caches_scenario_3_links_network.node[4].core_layer 	repo_load[4] 	35760
scalar three_caches_scenario_3_links_network.node[4].core_layer 	data[4] 	0
scalar three_caches_scenario_3_links_network.node[4].content_store 	p_hit[4] 	0
scalar three_caches_scenario_3_links_network.node[4].content_store 	hits[4] 	0
scalar three_caches_scenario_3_links_network.node[4].content_store 	misses[4] 	35760
scalar three_caches_scenario_3_links_network.node[4].content_store 	decision_yes[4] 	0
scalar three_caches_scenario_3_links_network.node[4].content_store 	decision_no[4] 	35760
scalar three_caches_scenario_3_links_network.node[5].core_layer 	interests[5] 	32792
scalar three_caches_scenario_3_links_network.node[5].core_layer 	repo_load[5] 	32792
scalar three_caches_scenario_3_links_network.node[5].core_layer 	data[5] 	0
scalar three_caches_scenario_3_links_network.node[5].content_store 	p_hit[5] 	0
scalar three_caches_scenario_3_links_network.node[5].content_store 	hits[5] 	0
scalar three_caches_scenario_3_links_network.node[5].content_store 	misses[5] 	32792
scalar three_caches_scenario_3_links_network.node[5].content_store 	decision_yes[5] 	0
scalar three_caches_scenario_3_links_network.node[5].content_store 	decision_no[5] 	32792
scalar three_caches_scenario_3_links_network.node[6].core_layer 	interests[6] 	28199
scalar three_caches_scenario_3_links_network.node[6].core_layer 	repo_load[6] 	28199
scalar three_caches_scenario_3_links_network.node[6].core_layer 	data[6] 	0
scalar three_caches_scenario_3_links_network.node[6].content_store 	p_hit[6] 	0
scalar three_caches_scenario_3_links_network.node[6].content_store 	hits[6] 	0
scalar three_caches_scenario_3_links_network.node[6].content_store 	misses[6] 	28199
scalar three_caches_scenario_3_links_network.node[6].content_store 	decision_yes[6] 	0
scalar three_caches_scenario_3_links_network.node[6].content_store 	decision_no[6] 	28199
scalar three_caches_scenario_3_links_network.client[0] 	hdistance[0] 	1.6403972404584
scalar three_caches_scenario_3_links_network.client[0] 	downloads[0] 	179740
scalar three_caches_scenario_3_links_network.client[0] 	avg_time[0] 	0
scalar three_caches_scenario_3_links_network.client[0] 	interests_sent[0] 	179740
