version 2
run General-2111-20140423-19:25:21-28065
attr D costprob0.01
attr F nrr
attr R lru
attr a 0.8
attr configname General
attr csize 2
attr ctlg 10^3
attr datetime 20140423-19:25:21
attr experiment General
attr inifile omnetpp.ini
attr iterationvars "$net=simple_scenario, $rep=6, $priceratiovalue=9, $a=0.8, $ctlg=10^3, $F=nrr, $ttl=1000, $D=costprob0.01, $R=lru, $csize=2"
attr iterationvars2 "$net=simple_scenario, $rep=6, $priceratiovalue=9, $a=0.8, $ctlg=10^3, $F=nrr, $ttl=1000, $D=costprob0.01, $R=lru, $csize=2, $repetition=0"
attr measurement "$net=simple_scenario, $rep=6, $priceratiovalue=9, $a=0.8, $ctlg=10^3, $F=nrr, $ttl=1000, $D=costprob0.01, $R=lru, $csize=2"
attr net simple_scenario
attr network networks.${net=simple_scenario}_network
attr priceratiovalue 9
attr processid 28065
attr rep 6
attr repetition 0
attr replication #0
attr resultdir results
attr runnumber 2111
attr seedset 6
attr ttl 1000

scalar . 	a 	0.8
scalar . 	csize 	2
scalar . 	priceratiovalue 	9
scalar . 	rep 	6
scalar . 	ttl 	1000
scalar simple_scenario_network.content_distribution 	repo-0 	3
scalar simple_scenario_network.content_distribution 	repo-1 	4
scalar simple_scenario_network.content_distribution 	client-0 	0
scalar simple_scenario_network.content_distribution 	repo-0_card 	495
scalar simple_scenario_network.content_distribution 	repo-1_card 	505
scalar simple_scenario_network.statistics 	p_hit 	0.031557965726751
scalar simple_scenario_network.statistics 	interests 	104151.2
scalar simple_scenario_network.statistics 	data 	68084.2
scalar simple_scenario_network.statistics 	hdistance 	2.796584135082
scalar simple_scenario_network.statistics 	avg_time 	0.001997934269
scalar simple_scenario_network.statistics 	downloads 	180335
scalar simple_scenario_network.statistics 	total_cost 	81923
scalar simple_scenario_network.node[0].core_layer 	interests[0] 	180335
scalar simple_scenario_network.node[0].core_layer 	data[0] 	176520
scalar simple_scenario_network.node[0].core_layer 	repo_int[0] 	163901
scalar simple_scenario_network.node[0].content_store 	p_hit[0] 	0.021155072503951
scalar simple_scenario_network.node[0].content_store 	hits[0] 	3815
scalar simple_scenario_network.node[0].content_store 	misses[0] 	176520
scalar simple_scenario_network.node[1].core_layer 	interests[1] 	91024
scalar simple_scenario_network.node[1].core_layer 	data[1] 	81984
scalar simple_scenario_network.node[1].content_store 	p_hit[1] 	0.099314466514326
scalar simple_scenario_network.node[1].content_store 	hits[1] 	9040
scalar simple_scenario_network.node[1].content_store 	misses[1] 	81984
scalar simple_scenario_network.node[2].core_layer 	interests[2] 	85496
scalar simple_scenario_network.node[2].core_layer 	data[2] 	81917
scalar simple_scenario_network.node[2].content_store 	p_hit[2] 	0.041861607560588
scalar simple_scenario_network.node[2].content_store 	hits[2] 	3579
scalar simple_scenario_network.node[2].content_store 	misses[2] 	81917
scalar simple_scenario_network.node[3].core_layer 	interests[3] 	81984
scalar simple_scenario_network.node[3].core_layer 	repo_load[3] 	81984
scalar simple_scenario_network.node[3].core_layer 	data[3] 	0
scalar simple_scenario_network.node[3].content_store 	p_hit[3] 	0
scalar simple_scenario_network.node[3].content_store 	hits[3] 	0
scalar simple_scenario_network.node[3].content_store 	misses[3] 	81984
scalar simple_scenario_network.node[4].core_layer 	interests[4] 	81917
scalar simple_scenario_network.node[4].core_layer 	repo_load[4] 	81917
scalar simple_scenario_network.node[4].core_layer 	data[4] 	0
scalar simple_scenario_network.node[4].content_store 	p_hit[4] 	0
scalar simple_scenario_network.node[4].content_store 	hits[4] 	0
scalar simple_scenario_network.node[4].content_store 	misses[4] 	81917
scalar simple_scenario_network.client[0] 	hdistance[0] 	2.796584135082
scalar simple_scenario_network.client[0] 	downloads[0] 	180335
scalar simple_scenario_network.client[0] 	avg_time[0] 	0.001997934269
