version 2
run General-614-20140422-19:51:41-27351
attr D prob_cache
attr F nrr
attr R lru
attr a 0
attr configname General
attr csize 10
attr ctlg 10^3
attr datetime 20140422-19:51:41
attr experiment General
attr inifile omnetpp.ini
attr iterationvars "$net=simple_scenario, $rep=6, $priceratiovalue=2, $a=0, $ctlg=10^3, $F=nrr, $ttl=1000, $D=prob_cache, $R=lru, $csize=10"
attr iterationvars2 "$net=simple_scenario, $rep=6, $priceratiovalue=2, $a=0, $ctlg=10^3, $F=nrr, $ttl=1000, $D=prob_cache, $R=lru, $csize=10, $repetition=0"
attr measurement "$net=simple_scenario, $rep=6, $priceratiovalue=2, $a=0, $ctlg=10^3, $F=nrr, $ttl=1000, $D=prob_cache, $R=lru, $csize=10"
attr net simple_scenario
attr network networks.${net=simple_scenario}_network
attr priceratiovalue 2
attr processid 27351
attr rep 6
attr repetition 0
attr replication #0
attr resultdir results
attr runnumber 614
attr seedset 6
attr ttl 1000

scalar . 	a 	0
scalar . 	csize 	10
scalar . 	priceratiovalue 	2
scalar . 	rep 	6
scalar . 	ttl 	1000
scalar simple_scenario_network.content_distribution 	repo-0 	3
scalar simple_scenario_network.content_distribution 	repo-1 	4
scalar simple_scenario_network.content_distribution 	client-0 	0
scalar simple_scenario_network.content_distribution 	repo-0_card 	495
scalar simple_scenario_network.content_distribution 	repo-1_card 	505
scalar simple_scenario_network.statistics 	p_hit 	0.0097541416692585
scalar simple_scenario_network.statistics 	interests 	106744.4
scalar simple_scenario_network.statistics 	data 	70700.4
scalar simple_scenario_network.statistics 	hdistance 	2.9326156919321
scalar simple_scenario_network.statistics 	avg_time 	0.001999784061
scalar simple_scenario_network.statistics 	downloads 	180220
scalar simple_scenario_network.statistics 	total_cost 	87727
scalar simple_scenario_network.node[0].core_layer 	interests[0] 	180220
scalar simple_scenario_network.node[0].core_layer 	data[0] 	178488
scalar simple_scenario_network.node[0].core_layer 	repo_int[0] 	175014
scalar simple_scenario_network.node[0].content_store 	p_hit[0] 	0.0096104760847853
scalar simple_scenario_network.node[0].content_store 	hits[0] 	1732
scalar simple_scenario_network.node[0].content_store 	misses[0] 	178488
scalar simple_scenario_network.node[1].core_layer 	interests[1] 	88583
scalar simple_scenario_network.node[1].core_layer 	data[1] 	86845
scalar simple_scenario_network.node[1].content_store 	p_hit[1] 	0.019620017384826
scalar simple_scenario_network.node[1].content_store 	hits[1] 	1738
scalar simple_scenario_network.node[1].content_store 	misses[1] 	86845
scalar simple_scenario_network.node[2].core_layer 	interests[2] 	89905
scalar simple_scenario_network.node[2].core_layer 	data[2] 	88169
scalar simple_scenario_network.node[2].content_store 	p_hit[2] 	0.019309270897058
scalar simple_scenario_network.node[2].content_store 	hits[2] 	1736
scalar simple_scenario_network.node[2].content_store 	misses[2] 	88169
scalar simple_scenario_network.node[3].core_layer 	interests[3] 	86845
scalar simple_scenario_network.node[3].core_layer 	repo_load[3] 	86845
scalar simple_scenario_network.node[3].core_layer 	data[3] 	0
scalar simple_scenario_network.node[3].content_store 	p_hit[3] 	0
scalar simple_scenario_network.node[3].content_store 	hits[3] 	0
scalar simple_scenario_network.node[3].content_store 	misses[3] 	86845
scalar simple_scenario_network.node[4].core_layer 	interests[4] 	88169
scalar simple_scenario_network.node[4].core_layer 	repo_load[4] 	88169
scalar simple_scenario_network.node[4].core_layer 	data[4] 	0
scalar simple_scenario_network.node[4].content_store 	p_hit[4] 	0
scalar simple_scenario_network.node[4].content_store 	hits[4] 	0
scalar simple_scenario_network.node[4].content_store 	misses[4] 	88169
scalar simple_scenario_network.client[0] 	hdistance[0] 	2.9326156919321
scalar simple_scenario_network.client[0] 	downloads[0] 	180220
scalar simple_scenario_network.client[0] 	avg_time[0] 	0.001999784061
