version 2
run General-1756-20140422-20:16:03-28634
attr D costprob0.1
attr F nrr
attr R lru
attr a 0
attr configname General
attr csize 10
attr ctlg 10^3
attr datetime 20140422-20:16:03
attr experiment General
attr inifile omnetpp.ini
attr iterationvars "$net=simple_scenario, $rep=15, $priceratiovalue=7, $a=0, $ctlg=10^3, $F=nrr, $ttl=1000, $D=costprob0.1, $R=lru, $csize=10"
attr iterationvars2 "$net=simple_scenario, $rep=15, $priceratiovalue=7, $a=0, $ctlg=10^3, $F=nrr, $ttl=1000, $D=costprob0.1, $R=lru, $csize=10, $repetition=0"
attr measurement "$net=simple_scenario, $rep=15, $priceratiovalue=7, $a=0, $ctlg=10^3, $F=nrr, $ttl=1000, $D=costprob0.1, $R=lru, $csize=10"
attr net simple_scenario
attr network networks.${net=simple_scenario}_network
attr priceratiovalue 7
attr processid 28634
attr rep 15
attr repetition 0
attr replication #0
attr resultdir results
attr runnumber 1756
attr seedset 15
attr ttl 1000

scalar . 	a 	0
scalar . 	csize 	10
scalar . 	priceratiovalue 	7
scalar . 	rep 	15
scalar . 	ttl 	1000
scalar simple_scenario_network.content_distribution 	repo-0 	3
scalar simple_scenario_network.content_distribution 	repo-1 	4
scalar simple_scenario_network.content_distribution 	client-0 	0
scalar simple_scenario_network.content_distribution 	repo-0_card 	472
scalar simple_scenario_network.content_distribution 	repo-1_card 	528
scalar simple_scenario_network.statistics 	p_hit 	0.0097940379709051
scalar simple_scenario_network.statistics 	interests 	106534.2
scalar simple_scenario_network.statistics 	data 	70560.2
scalar simple_scenario_network.statistics 	hdistance 	2.9324178573415
scalar simple_scenario_network.statistics 	avg_time 	0.001999686919
scalar simple_scenario_network.statistics 	downloads 	179870
scalar simple_scenario_network.statistics 	total_cost 	90689
scalar simple_scenario_network.node[0].core_layer 	interests[0] 	179870
scalar simple_scenario_network.node[0].core_layer 	data[0] 	178148
scalar simple_scenario_network.node[0].core_layer 	repo_int[0] 	174653
scalar simple_scenario_network.node[0].content_store 	p_hit[0] 	0.009573580919553
scalar simple_scenario_network.node[0].content_store 	hits[0] 	1722
scalar simple_scenario_network.node[0].content_store 	misses[0] 	178148
scalar simple_scenario_network.node[1].core_layer 	interests[1] 	84621
scalar simple_scenario_network.node[1].core_layer 	data[1] 	82842
scalar simple_scenario_network.node[1].content_store 	p_hit[1] 	0.021023150281845
scalar simple_scenario_network.node[1].content_store 	hits[1] 	1779
scalar simple_scenario_network.node[1].content_store 	misses[1] 	82842
scalar simple_scenario_network.node[2].core_layer 	interests[2] 	93527
scalar simple_scenario_network.node[2].core_layer 	data[2] 	91811
scalar simple_scenario_network.node[2].content_store 	p_hit[2] 	0.018347642926642
scalar simple_scenario_network.node[2].content_store 	hits[2] 	1716
scalar simple_scenario_network.node[2].content_store 	misses[2] 	91811
scalar simple_scenario_network.node[3].core_layer 	interests[3] 	82842
scalar simple_scenario_network.node[3].core_layer 	repo_load[3] 	82842
scalar simple_scenario_network.node[3].core_layer 	data[3] 	0
scalar simple_scenario_network.node[3].content_store 	p_hit[3] 	0
scalar simple_scenario_network.node[3].content_store 	hits[3] 	0
scalar simple_scenario_network.node[3].content_store 	misses[3] 	82842
scalar simple_scenario_network.node[4].core_layer 	interests[4] 	91811
scalar simple_scenario_network.node[4].core_layer 	repo_load[4] 	91811
scalar simple_scenario_network.node[4].core_layer 	data[4] 	0
scalar simple_scenario_network.node[4].content_store 	p_hit[4] 	0
scalar simple_scenario_network.node[4].content_store 	hits[4] 	0
scalar simple_scenario_network.node[4].content_store 	misses[4] 	91811
scalar simple_scenario_network.client[0] 	hdistance[0] 	2.9324178573415
scalar simple_scenario_network.client[0] 	downloads[0] 	179870
scalar simple_scenario_network.client[0] 	avg_time[0] 	0.001999686919
