version 2
run General-404-20140502-10:42:32-13643
attr D costprob0.001
attr F nrr
attr R lru
attr a 0.8
attr configname General
attr csize 1e3
attr ctlg 1e5
attr datetime 20140502-10:42:32
attr experiment General
attr inifile omnetpp.ini
attr iterationvars "$net=three_caches_scenario_3_links, $rep=3, $priceratiovalue=10, $weights=0.333_0.333_0.334, $a=0.8, $ctlg=1e5, $F=nrr, $ttl=1000, $D=costprob0.001, $xi=1, $R=lru, $csize=1e3"
attr iterationvars2 "$net=three_caches_scenario_3_links, $rep=3, $priceratiovalue=10, $weights=0.333_0.333_0.334, $a=0.8, $ctlg=1e5, $F=nrr, $ttl=1000, $D=costprob0.001, $xi=1, $R=lru, $csize=1e3, $repetition=0"
attr measurement "$net=three_caches_scenario_3_links, $rep=3, $priceratiovalue=10, $weights=0.333_0.333_0.334, $a=0.8, $ctlg=1e5, $F=nrr, $ttl=1000, $D=costprob0.001, $xi=1, $R=lru, $csize=1e3"
attr net three_caches_scenario_3_links
attr network networks.${net=three_caches_scenario_3_links}_network
attr priceratiovalue 10
attr processid 13643
attr rep 3
attr repetition 0
attr replication #0
attr resultdir results
attr runnumber 404
attr seedset 3
attr ttl 1000
attr weights 0.333_0.333_0.334
attr xi 1

scalar . 	a 	0.8
scalar . 	csize 	1e3
scalar . 	ctlg 	1e5
scalar . 	priceratiovalue 	10
scalar . 	rep 	3
scalar . 	ttl 	1000
scalar . 	xi 	1
scalar three_caches_scenario_3_links_network.content_distribution 	repo-0 	4
scalar three_caches_scenario_3_links_network.content_distribution 	repo-1 	5
scalar three_caches_scenario_3_links_network.content_distribution 	repo-2 	6
scalar three_caches_scenario_3_links_network.content_distribution 	client-0 	0
scalar three_caches_scenario_3_links_network.content_distribution 	repo-0_card 	33329
scalar three_caches_scenario_3_links_network.content_distribution 	repo-1_card 	33051
scalar three_caches_scenario_3_links_network.content_distribution 	repo-2_card 	33620
scalar three_caches_scenario_3_links_network.statistics 	p_hit 	0.066514746465184
scalar three_caches_scenario_3_links_network.statistics 	interests 	69522.714285714
scalar three_caches_scenario_3_links_network.statistics 	data 	43952.857142857
scalar three_caches_scenario_3_links_network.statistics 	hdistance 	2.1867433194219
scalar three_caches_scenario_3_links_network.statistics 	avg_time 	0
scalar three_caches_scenario_3_links_network.statistics 	downloads 	178989
scalar three_caches_scenario_3_links_network.statistics 	total_cost 	426516
scalar three_caches_scenario_3_links_network.statistics 	total_replicas 	100000
scalar three_caches_scenario_3_links_network.statistics 	interests_sent 	178989
scalar three_caches_scenario_3_links_network.node[0].core_layer 	interests[0] 	178989
scalar three_caches_scenario_3_links_network.node[0].core_layer 	data[0] 	161051
scalar three_caches_scenario_3_links_network.node[0].core_layer 	repo_int[0] 	146619
scalar three_caches_scenario_3_links_network.node[0].content_store 	p_hit[0] 	0.10021844917844
scalar three_caches_scenario_3_links_network.node[0].content_store 	hits[0] 	17938
scalar three_caches_scenario_3_links_network.node[0].content_store 	misses[0] 	161051
scalar three_caches_scenario_3_links_network.node[0].content_store 	decision_yes[0] 	125
scalar three_caches_scenario_3_links_network.node[0].content_store 	decision_no[0] 	160926
scalar three_caches_scenario_3_links_network.node[1].core_layer 	interests[1] 	62886
scalar three_caches_scenario_3_links_network.node[1].core_layer 	data[1] 	62886
scalar three_caches_scenario_3_links_network.node[1].content_store 	p_hit[1] 	0
scalar three_caches_scenario_3_links_network.node[1].content_store 	hits[1] 	0
scalar three_caches_scenario_3_links_network.node[1].content_store 	misses[1] 	62886
scalar three_caches_scenario_3_links_network.node[1].content_store 	decision_yes[1] 	0
scalar three_caches_scenario_3_links_network.node[1].content_store 	decision_no[1] 	62886
scalar three_caches_scenario_3_links_network.node[2].core_layer 	interests[2] 	50742
scalar three_caches_scenario_3_links_network.node[2].core_layer 	data[2] 	45646
scalar three_caches_scenario_3_links_network.node[2].content_store 	p_hit[2] 	0.10042962437429
scalar three_caches_scenario_3_links_network.node[2].content_store 	hits[2] 	5096
scalar three_caches_scenario_3_links_network.node[2].content_store 	misses[2] 	45646
scalar three_caches_scenario_3_links_network.node[2].content_store 	decision_yes[2] 	6
scalar three_caches_scenario_3_links_network.node[2].content_store 	decision_no[2] 	45640
scalar three_caches_scenario_3_links_network.node[3].core_layer 	interests[3] 	47423
scalar three_caches_scenario_3_links_network.node[3].core_layer 	data[3] 	38087
scalar three_caches_scenario_3_links_network.node[3].content_store 	p_hit[3] 	0.19686649937794
scalar three_caches_scenario_3_links_network.node[3].content_store 	hits[3] 	9336
scalar three_caches_scenario_3_links_network.node[3].content_store 	misses[3] 	38087
scalar three_caches_scenario_3_links_network.node[3].content_store 	decision_yes[3] 	97
scalar three_caches_scenario_3_links_network.node[3].content_store 	decision_no[3] 	37990
scalar three_caches_scenario_3_links_network.node[4].core_layer 	interests[4] 	62886
scalar three_caches_scenario_3_links_network.node[4].core_layer 	repo_load[4] 	62886
scalar three_caches_scenario_3_links_network.node[4].core_layer 	data[4] 	0
scalar three_caches_scenario_3_links_network.node[4].content_store 	p_hit[4] 	0
scalar three_caches_scenario_3_links_network.node[4].content_store 	hits[4] 	0
scalar three_caches_scenario_3_links_network.node[4].content_store 	misses[4] 	62886
scalar three_caches_scenario_3_links_network.node[4].content_store 	decision_yes[4] 	0
scalar three_caches_scenario_3_links_network.node[4].content_store 	decision_no[4] 	62886
scalar three_caches_scenario_3_links_network.node[5].core_layer 	interests[5] 	45646
scalar three_caches_scenario_3_links_network.node[5].core_layer 	repo_load[5] 	45646
scalar three_caches_scenario_3_links_network.node[5].core_layer 	data[5] 	0
scalar three_caches_scenario_3_links_network.node[5].content_store 	p_hit[5] 	0
scalar three_caches_scenario_3_links_network.node[5].content_store 	hits[5] 	0
scalar three_caches_scenario_3_links_network.node[5].content_store 	misses[5] 	45646
scalar three_caches_scenario_3_links_network.node[5].content_store 	decision_yes[5] 	0
scalar three_caches_scenario_3_links_network.node[5].content_store 	decision_no[5] 	45646
scalar three_caches_scenario_3_links_network.node[6].core_layer 	interests[6] 	38087
scalar three_caches_scenario_3_links_network.node[6].core_layer 	repo_load[6] 	38087
scalar three_caches_scenario_3_links_network.node[6].core_layer 	data[6] 	0
scalar three_caches_scenario_3_links_network.node[6].content_store 	p_hit[6] 	0
scalar three_caches_scenario_3_links_network.node[6].content_store 	hits[6] 	0
scalar three_caches_scenario_3_links_network.node[6].content_store 	misses[6] 	38087
scalar three_caches_scenario_3_links_network.node[6].content_store 	decision_yes[6] 	0
scalar three_caches_scenario_3_links_network.node[6].content_store 	decision_no[6] 	38087
scalar three_caches_scenario_3_links_network.client[0] 	hdistance[0] 	2.1867433194219
scalar three_caches_scenario_3_links_network.client[0] 	downloads[0] 	178989
scalar three_caches_scenario_3_links_network.client[0] 	avg_time[0] 	0
scalar three_caches_scenario_3_links_network.client[0] 	interests_sent[0] 	178989
