version 2
run General-23-20140626-17:44:07-10838
attr D costprobprodcorr0.01
attr F spr
attr R lru
attr a 1
attr configname General
attr csize 1e3
attr ctlg 1e5
attr datetime 20140626-17:44:07
attr experiment General
attr inifile omnetpp.ini
attr iterationvars "$net=geant_cost, $rep=6, $priceratiovalue=10, $weights=0.333_0.333_0.334, $lambda=100, $a=1, $ctlg=1e5, $F=spr, $ttl=1000, $D=costprobprodcorr0.01, $xi=1, $R=lru, $csize=1e3, $pricebits=0, $mytime=1800"
attr iterationvars2 "$net=geant_cost, $rep=6, $priceratiovalue=10, $weights=0.333_0.333_0.334, $lambda=100, $a=1, $ctlg=1e5, $F=spr, $ttl=1000, $D=costprobprodcorr0.01, $xi=1, $R=lru, $csize=1e3, $pricebits=0, $mytime=1800, $repetition=0"
attr lambda 100
attr measurement "$net=geant_cost, $rep=6, $priceratiovalue=10, $weights=0.333_0.333_0.334, $lambda=100, $a=1, $ctlg=1e5, $F=spr, $ttl=1000, $D=costprobprodcorr0.01, $xi=1, $R=lru, $csize=1e3, $pricebits=0, $mytime=1800"
attr mytime 1800
attr net geant_cost
attr network "networks.${net=geant_cost, abilene_cost}_network"
attr pricebits 0
attr priceratiovalue 10
attr processid 10838
attr rep 6
attr repetition 0
attr replication #0
attr resultdir results
attr runnumber 23
attr seedset 6
attr ttl 1000
attr weights 0.333_0.333_0.334
attr xi 1

scalar . 	a 	1
scalar . 	csize 	1e3
scalar . 	ctlg 	1e5
scalar . 	lambda 	100
scalar . 	mytime 	1800
scalar . 	pricebits 	0
scalar . 	priceratiovalue 	10
scalar . 	rep 	6
scalar . 	ttl 	1000
scalar . 	xi 	1
scalar geant_cost_network.content_distribution 	repo-0 	22
scalar geant_cost_network.content_distribution 	repo-1 	23
scalar geant_cost_network.content_distribution 	repo-2 	24
scalar geant_cost_network.content_distribution 	client-0 	20
scalar geant_cost_network.content_distribution 	client-1 	10
scalar geant_cost_network.content_distribution 	client-2 	12
scalar geant_cost_network.content_distribution 	client-3 	9
scalar geant_cost_network.content_distribution 	client-4 	5
scalar geant_cost_network.content_distribution 	repo-0_card 	33436
scalar geant_cost_network.content_distribution 	repo-1_card 	33143
scalar geant_cost_network.content_distribution 	repo-2_card 	33421
scalar geant_cost_network.statistics 	repo_popularity[0] 	0.39107817255936
scalar geant_cost_network.statistics 	repo_popularity[1] 	0.30968687902184
scalar geant_cost_network.statistics 	repo_popularity[2] 	0.2992349484188
scalar geant_cost_network.statistics 	stabilization_time 	36060
scalar geant_cost_network.node[7].face$o[4].channel 	price[7] 	0
scalar geant_cost_network.node[7].face$o[4].channel 	represented_price[7] 	0
scalar geant_cost_network.node[8].face$o[3].channel 	price[8] 	0
scalar geant_cost_network.node[8].face$o[3].channel 	represented_price[8] 	0
scalar geant_cost_network.node[21].face$o[5].channel 	price[21] 	0
scalar geant_cost_network.node[21].face$o[5].channel 	represented_price[21] 	0
scalar geant_cost_network.node[22].face$o[1].channel 	price[22] 	0
scalar geant_cost_network.node[22].face$o[1].channel 	represented_price[22] 	0
scalar geant_cost_network.node[23].face$o[1].channel 	price[23] 	1
scalar geant_cost_network.node[23].face$o[1].channel 	represented_price[23] 	1
scalar geant_cost_network.node[24].face$o[1].channel 	price[24] 	10
scalar geant_cost_network.node[24].face$o[1].channel 	represented_price[24] 	10
scalar geant_cost_network.statistics 	p_hit 	0.06552937476734
scalar geant_cost_network.statistics 	interests 	145383.96
scalar geant_cost_network.statistics 	data 	109330
scalar geant_cost_network.statistics 	hdistance 	3.7884014183467
scalar geant_cost_network.statistics 	avg_time 	0.00581646914
scalar geant_cost_network.statistics 	downloads 	896065
scalar geant_cost_network.statistics 	total_cost 	1697699
scalar geant_cost_network.statistics 	total_replicas 	100000
scalar geant_cost_network.statistics 	inner_hit 	0.26766138617176
scalar geant_cost_network.statistics 	interests_sent 	901354
scalar geant_cost_network.node[0].core_layer 	interests[0] 	0
scalar geant_cost_network.node[0].core_layer 	data[0] 	0
scalar geant_cost_network.node[0].core_layer 	repo_int[0] 	656223
scalar geant_cost_network.node[0].content_store 	p_hit[0] 	-nan
scalar geant_cost_network.node[0].content_store 	hits[0] 	0
scalar geant_cost_network.node[0].content_store 	misses[0] 	0
scalar geant_cost_network.node[0].content_store 	decision_yes[0] 	0
scalar geant_cost_network.node[0].content_store 	decision_no[0] 	0
scalar geant_cost_network.node[0].content_store 	decision_ratio[0] 	0
scalar geant_cost_network.node[0].content_store 	correction_factor[0] 	0.0027225701061802
scalar geant_cost_network.node[0].content_store 	xi[0] 	1
scalar geant_cost_network.node[1].core_layer 	interests[1] 	0
scalar geant_cost_network.node[1].core_layer 	data[1] 	0
scalar geant_cost_network.node[1].content_store 	p_hit[1] 	-nan
scalar geant_cost_network.node[1].content_store 	hits[1] 	0
scalar geant_cost_network.node[1].content_store 	misses[1] 	0
scalar geant_cost_network.node[1].content_store 	decision_yes[1] 	0
scalar geant_cost_network.node[1].content_store 	decision_no[1] 	0
scalar geant_cost_network.node[1].content_store 	decision_ratio[1] 	0
scalar geant_cost_network.node[1].content_store 	correction_factor[1] 	0.0027225701061802
scalar geant_cost_network.node[1].content_store 	xi[1] 	1
scalar geant_cost_network.node[2].core_layer 	interests[2] 	0
scalar geant_cost_network.node[2].core_layer 	data[2] 	0
scalar geant_cost_network.node[2].content_store 	p_hit[2] 	-nan
scalar geant_cost_network.node[2].content_store 	hits[2] 	0
scalar geant_cost_network.node[2].content_store 	misses[2] 	0
scalar geant_cost_network.node[2].content_store 	decision_yes[2] 	0
scalar geant_cost_network.node[2].content_store 	decision_no[2] 	0
scalar geant_cost_network.node[2].content_store 	decision_ratio[2] 	0
scalar geant_cost_network.node[2].content_store 	correction_factor[2] 	0.0027225701061802
scalar geant_cost_network.node[2].content_store 	xi[2] 	1
scalar geant_cost_network.node[3].core_layer 	interests[3] 	196622
scalar geant_cost_network.node[3].core_layer 	data[3] 	183649
scalar geant_cost_network.node[3].content_store 	p_hit[3] 	0.065979391929693
scalar geant_cost_network.node[3].content_store 	hits[3] 	12973
scalar geant_cost_network.node[3].content_store 	misses[3] 	183649
scalar geant_cost_network.node[3].content_store 	decision_yes[3] 	2422
scalar geant_cost_network.node[3].content_store 	decision_no[3] 	181227
scalar geant_cost_network.node[3].content_store 	decision_ratio[3] 	0.013188201405943
scalar geant_cost_network.node[3].content_store 	correction_factor[3] 	0.0027225701061802
scalar geant_cost_network.node[3].content_store 	xi[3] 	1
scalar geant_cost_network.node[4].core_layer 	interests[4] 	299526
scalar geant_cost_network.node[4].core_layer 	data[4] 	289440
scalar geant_cost_network.node[4].content_store 	p_hit[4] 	0.032114073569573
scalar geant_cost_network.node[4].content_store 	hits[4] 	9619
scalar geant_cost_network.node[4].content_store 	misses[4] 	289907
scalar geant_cost_network.node[4].content_store 	decision_yes[4] 	2514
scalar geant_cost_network.node[4].content_store 	decision_no[4] 	286926
scalar geant_cost_network.node[4].content_store 	decision_ratio[4] 	0.0086857379767828
scalar geant_cost_network.node[4].content_store 	correction_factor[4] 	0.0027225701061802
scalar geant_cost_network.node[4].content_store 	xi[4] 	1
scalar geant_cost_network.node[5].core_layer 	interests[5] 	180385
scalar geant_cost_network.node[5].core_layer 	data[5] 	166042
scalar geant_cost_network.node[5].content_store 	p_hit[5] 	0.070477035230202
scalar geant_cost_network.node[5].content_store 	hits[5] 	12713
scalar geant_cost_network.node[5].content_store 	misses[5] 	167672
scalar geant_cost_network.node[5].content_store 	decision_yes[5] 	918
scalar geant_cost_network.node[5].content_store 	decision_no[5] 	165124
scalar geant_cost_network.node[5].content_store 	decision_ratio[5] 	0.0055287216487395
scalar geant_cost_network.node[5].content_store 	correction_factor[5] 	0.0027225701061802
scalar geant_cost_network.node[5].content_store 	xi[5] 	1
scalar geant_cost_network.node[6].core_layer 	interests[6] 	120288
scalar geant_cost_network.node[6].core_layer 	data[6] 	115472
scalar geant_cost_network.node[6].content_store 	p_hit[6] 	0.040037243947858
scalar geant_cost_network.node[6].content_store 	hits[6] 	4816
scalar geant_cost_network.node[6].content_store 	misses[6] 	115472
scalar geant_cost_network.node[6].content_store 	decision_yes[6] 	68
scalar geant_cost_network.node[6].content_store 	decision_no[6] 	115404
scalar geant_cost_network.node[6].content_store 	decision_ratio[6] 	0.00058888734931412
scalar geant_cost_network.node[6].content_store 	correction_factor[6] 	0.0027225701061802
scalar geant_cost_network.node[6].content_store 	xi[6] 	1
scalar geant_cost_network.node[7].core_layer 	interests[7] 	439307
scalar geant_cost_network.node[7].core_layer 	data[7] 	430433
scalar geant_cost_network.node[7].content_store 	p_hit[7] 	0.019958707691887
scalar geant_cost_network.node[7].content_store 	hits[7] 	8768
scalar geant_cost_network.node[7].content_store 	misses[7] 	430539
scalar geant_cost_network.node[7].content_store 	decision_yes[7] 	199
scalar geant_cost_network.node[7].content_store 	decision_no[7] 	430234
scalar geant_cost_network.node[7].content_store 	decision_ratio[7] 	0.00046232514700313
scalar geant_cost_network.node[7].content_store 	correction_factor[7] 	0.0027225701061802
scalar geant_cost_network.node[7].content_store 	xi[7] 	1
scalar geant_cost_network.node[8].core_layer 	interests[8] 	359709
scalar geant_cost_network.node[8].core_layer 	data[8] 	294012
scalar geant_cost_network.node[8].content_store 	p_hit[8] 	0.18264208012588
scalar geant_cost_network.node[8].content_store 	hits[8] 	65698
scalar geant_cost_network.node[8].content_store 	misses[8] 	294011
scalar geant_cost_network.node[8].content_store 	decision_yes[8] 	464
scalar geant_cost_network.node[8].content_store 	decision_no[8] 	293548
scalar geant_cost_network.node[8].content_store 	decision_ratio[8] 	0.0015781668775424
scalar geant_cost_network.node[8].content_store 	correction_factor[8] 	0.0027225701061802
scalar geant_cost_network.node[8].content_store 	xi[8] 	1
scalar geant_cost_network.node[9].core_layer 	interests[9] 	395084
scalar geant_cost_network.node[9].core_layer 	data[9] 	367774
scalar geant_cost_network.node[9].content_store 	p_hit[9] 	0.065527837118182
scalar geant_cost_network.node[9].content_store 	hits[9] 	25889
scalar geant_cost_network.node[9].content_store 	misses[9] 	369195
scalar geant_cost_network.node[9].content_store 	decision_yes[9] 	1818
scalar geant_cost_network.node[9].content_store 	decision_no[9] 	365956
scalar geant_cost_network.node[9].content_store 	decision_ratio[9] 	0.0049432531935373
scalar geant_cost_network.node[9].content_store 	correction_factor[9] 	0.0027225701061802
scalar geant_cost_network.node[9].content_store 	xi[9] 	1
scalar geant_cost_network.node[10].core_layer 	interests[10] 	180511
scalar geant_cost_network.node[10].core_layer 	data[10] 	170871
scalar geant_cost_network.node[10].content_store 	p_hit[10] 	0.048661854402225
scalar geant_cost_network.node[10].content_store 	hits[10] 	8784
scalar geant_cost_network.node[10].content_store 	misses[10] 	171727
scalar geant_cost_network.node[10].content_store 	decision_yes[10] 	910
scalar geant_cost_network.node[10].content_store 	decision_no[10] 	169961
scalar geant_cost_network.node[10].content_store 	decision_ratio[10] 	0.0053256550263064
scalar geant_cost_network.node[10].content_store 	correction_factor[10] 	0.0027225701061802
scalar geant_cost_network.node[10].content_store 	xi[10] 	1
scalar geant_cost_network.node[11].core_layer 	interests[11] 	0
scalar geant_cost_network.node[11].core_layer 	data[11] 	0
scalar geant_cost_network.node[11].content_store 	p_hit[11] 	-nan
scalar geant_cost_network.node[11].content_store 	hits[11] 	0
scalar geant_cost_network.node[11].content_store 	misses[11] 	0
scalar geant_cost_network.node[11].content_store 	decision_yes[11] 	0
scalar geant_cost_network.node[11].content_store 	decision_no[11] 	0
scalar geant_cost_network.node[11].content_store 	decision_ratio[11] 	0
scalar geant_cost_network.node[11].content_store 	correction_factor[11] 	0.0027225701061802
scalar geant_cost_network.node[11].content_store 	xi[11] 	1
scalar geant_cost_network.node[12].core_layer 	interests[12] 	272872
scalar geant_cost_network.node[12].core_layer 	data[12] 	241214
scalar geant_cost_network.node[12].content_store 	p_hit[12] 	0.11265721657041
scalar geant_cost_network.node[12].content_store 	hits[12] 	30741
scalar geant_cost_network.node[12].content_store 	misses[12] 	242131
scalar geant_cost_network.node[12].content_store 	decision_yes[12] 	2513
scalar geant_cost_network.node[12].content_store 	decision_no[12] 	238701
scalar geant_cost_network.node[12].content_store 	decision_ratio[12] 	0.010418134934125
scalar geant_cost_network.node[12].content_store 	correction_factor[12] 	0.0027225701061802
scalar geant_cost_network.node[12].content_store 	xi[12] 	1
scalar geant_cost_network.node[13].core_layer 	interests[13] 	0
scalar geant_cost_network.node[13].core_layer 	data[13] 	0
scalar geant_cost_network.node[13].content_store 	p_hit[13] 	-nan
scalar geant_cost_network.node[13].content_store 	hits[13] 	0
scalar geant_cost_network.node[13].content_store 	misses[13] 	0
scalar geant_cost_network.node[13].content_store 	decision_yes[13] 	0
scalar geant_cost_network.node[13].content_store 	decision_no[13] 	0
scalar geant_cost_network.node[13].content_store 	decision_ratio[13] 	0
scalar geant_cost_network.node[13].content_store 	correction_factor[13] 	0.0027225701061802
scalar geant_cost_network.node[13].content_store 	xi[13] 	1
scalar geant_cost_network.node[14].core_layer 	interests[14] 	45754
scalar geant_cost_network.node[14].core_layer 	data[14] 	37653
scalar geant_cost_network.node[14].content_store 	p_hit[14] 	0.177055557984
scalar geant_cost_network.node[14].content_store 	hits[14] 	8101
scalar geant_cost_network.node[14].content_store 	misses[14] 	37653
scalar geant_cost_network.node[14].content_store 	decision_yes[14] 	862
scalar geant_cost_network.node[14].content_store 	decision_no[14] 	36791
scalar geant_cost_network.node[14].content_store 	decision_ratio[14] 	0.022893262157066
scalar geant_cost_network.node[14].content_store 	correction_factor[14] 	0.0027225701061802
scalar geant_cost_network.node[14].content_store 	xi[14] 	1
scalar geant_cost_network.node[15].core_layer 	interests[15] 	0
scalar geant_cost_network.node[15].core_layer 	data[15] 	0
scalar geant_cost_network.node[15].content_store 	p_hit[15] 	-nan
scalar geant_cost_network.node[15].content_store 	hits[15] 	0
scalar geant_cost_network.node[15].content_store 	misses[15] 	0
scalar geant_cost_network.node[15].content_store 	decision_yes[15] 	0
scalar geant_cost_network.node[15].content_store 	decision_no[15] 	0
scalar geant_cost_network.node[15].content_store 	decision_ratio[15] 	0
scalar geant_cost_network.node[15].content_store 	correction_factor[15] 	0.0027225701061802
scalar geant_cost_network.node[15].content_store 	xi[15] 	1
scalar geant_cost_network.node[16].core_layer 	interests[16] 	0
scalar geant_cost_network.node[16].core_layer 	data[16] 	0
scalar geant_cost_network.node[16].content_store 	p_hit[16] 	-nan
scalar geant_cost_network.node[16].content_store 	hits[16] 	0
scalar geant_cost_network.node[16].content_store 	misses[16] 	0
scalar geant_cost_network.node[16].content_store 	decision_yes[16] 	0
scalar geant_cost_network.node[16].content_store 	decision_no[16] 	0
scalar geant_cost_network.node[16].content_store 	decision_ratio[16] 	0
scalar geant_cost_network.node[16].content_store 	correction_factor[16] 	0.0027225701061802
scalar geant_cost_network.node[16].content_store 	xi[16] 	1
scalar geant_cost_network.node[17].core_layer 	interests[17] 	0
scalar geant_cost_network.node[17].core_layer 	data[17] 	0
scalar geant_cost_network.node[17].content_store 	p_hit[17] 	-nan
scalar geant_cost_network.node[17].content_store 	hits[17] 	0
scalar geant_cost_network.node[17].content_store 	misses[17] 	0
scalar geant_cost_network.node[17].content_store 	decision_yes[17] 	0
scalar geant_cost_network.node[17].content_store 	decision_no[17] 	0
scalar geant_cost_network.node[17].content_store 	decision_ratio[17] 	0
scalar geant_cost_network.node[17].content_store 	correction_factor[17] 	0.0027225701061802
scalar geant_cost_network.node[17].content_store 	xi[17] 	1
scalar geant_cost_network.node[18].core_layer 	interests[18] 	120092
scalar geant_cost_network.node[18].core_layer 	data[18] 	115878
scalar geant_cost_network.node[18].content_store 	p_hit[18] 	0.03510641841255
scalar geant_cost_network.node[18].content_store 	hits[18] 	4216
scalar geant_cost_network.node[18].content_store 	misses[18] 	115876
scalar geant_cost_network.node[18].content_store 	decision_yes[18] 	76
scalar geant_cost_network.node[18].content_store 	decision_no[18] 	115802
scalar geant_cost_network.node[18].content_store 	decision_ratio[18] 	0.00065586219989989
scalar geant_cost_network.node[18].content_store 	correction_factor[18] 	0.0027225701061802
scalar geant_cost_network.node[18].content_store 	xi[18] 	1
scalar geant_cost_network.node[19].core_layer 	interests[19] 	0
scalar geant_cost_network.node[19].core_layer 	data[19] 	0
scalar geant_cost_network.node[19].content_store 	p_hit[19] 	-nan
scalar geant_cost_network.node[19].content_store 	hits[19] 	0
scalar geant_cost_network.node[19].content_store 	misses[19] 	0
scalar geant_cost_network.node[19].content_store 	decision_yes[19] 	0
scalar geant_cost_network.node[19].content_store 	decision_no[19] 	0
scalar geant_cost_network.node[19].content_store 	decision_ratio[19] 	0
scalar geant_cost_network.node[19].content_store 	correction_factor[19] 	0.0027225701061802
scalar geant_cost_network.node[19].content_store 	xi[19] 	1
scalar geant_cost_network.node[20].core_layer 	interests[20] 	180200
scalar geant_cost_network.node[20].core_layer 	data[20] 	166619
scalar geant_cost_network.node[20].content_store 	p_hit[20] 	0.066714761376249
scalar geant_cost_network.node[20].content_store 	hits[20] 	12022
scalar geant_cost_network.node[20].content_store 	misses[20] 	168178
scalar geant_cost_network.node[20].content_store 	decision_yes[20] 	1061
scalar geant_cost_network.node[20].content_store 	decision_no[20] 	165558
scalar geant_cost_network.node[20].content_store 	decision_ratio[20] 	0.0063678211968623
scalar geant_cost_network.node[20].content_store 	correction_factor[20] 	0.0027225701061802
scalar geant_cost_network.node[20].content_store 	xi[20] 	1
scalar geant_cost_network.node[21].core_layer 	interests[21] 	188026
scalar geant_cost_network.node[21].core_layer 	data[21] 	154193
scalar geant_cost_network.node[21].content_store 	p_hit[21] 	0.17993788093136
scalar geant_cost_network.node[21].content_store 	hits[21] 	33833
scalar geant_cost_network.node[21].content_store 	misses[21] 	154193
scalar geant_cost_network.node[21].content_store 	decision_yes[21] 	4149
scalar geant_cost_network.node[21].content_store 	decision_no[21] 	150044
scalar geant_cost_network.node[21].content_store 	decision_ratio[21] 	0.0269078362831
scalar geant_cost_network.node[21].content_store 	correction_factor[21] 	0.0027225701061802
scalar geant_cost_network.node[21].content_store 	xi[21] 	1
scalar geant_cost_network.node[22].core_layer 	interests[22] 	346261
scalar geant_cost_network.node[22].core_layer 	repo_load[22] 	346261
scalar geant_cost_network.node[22].core_layer 	data[22] 	0
scalar geant_cost_network.node[22].content_store 	p_hit[22] 	0
scalar geant_cost_network.node[22].content_store 	hits[22] 	0
scalar geant_cost_network.node[22].content_store 	misses[22] 	346261
scalar geant_cost_network.node[22].content_store 	decision_yes[22] 	0
scalar geant_cost_network.node[22].content_store 	decision_no[22] 	346261
scalar geant_cost_network.node[22].content_store 	decision_ratio[22] 	0
scalar geant_cost_network.node[23].core_layer 	interests[23] 	155769
scalar geant_cost_network.node[23].core_layer 	repo_load[23] 	155769
scalar geant_cost_network.node[23].core_layer 	data[23] 	0
scalar geant_cost_network.node[23].content_store 	p_hit[23] 	0
scalar geant_cost_network.node[23].content_store 	hits[23] 	0
scalar geant_cost_network.node[23].content_store 	misses[23] 	155769
scalar geant_cost_network.node[23].content_store 	decision_yes[23] 	0
scalar geant_cost_network.node[23].content_store 	decision_no[23] 	155769
scalar geant_cost_network.node[23].content_store 	decision_ratio[23] 	0
scalar geant_cost_network.node[24].core_layer 	interests[24] 	154193
scalar geant_cost_network.node[24].core_layer 	repo_load[24] 	154193
scalar geant_cost_network.node[24].core_layer 	data[24] 	0
scalar geant_cost_network.node[24].content_store 	p_hit[24] 	0
scalar geant_cost_network.node[24].content_store 	hits[24] 	0
scalar geant_cost_network.node[24].content_store 	misses[24] 	154193
scalar geant_cost_network.node[24].content_store 	decision_yes[24] 	0
scalar geant_cost_network.node[24].content_store 	decision_no[24] 	154193
scalar geant_cost_network.node[24].content_store 	decision_ratio[24] 	0
scalar geant_cost_network.client[5] 	hdistance[5] 	3.4713378646751
scalar geant_cost_network.client[5] 	downloads[5] 	178755
scalar geant_cost_network.client[5] 	avg_time[5] 	0.009234532506
scalar geant_cost_network.client[5] 	interests_sent[5] 	180385
scalar geant_cost_network.client[9] 	hdistance[9] 	3.4200801598732
scalar geant_cost_network.client[9] 	downloads[9] 	179142
scalar geant_cost_network.client[9] 	avg_time[9] 	0.003383759979
scalar geant_cost_network.client[9] 	interests_sent[9] 	179622
scalar geant_cost_network.client[10] 	hdistance[10] 	4.3168127800505
scalar geant_cost_network.client[10] 	downloads[10] 	179655
scalar geant_cost_network.client[10] 	avg_time[10] 	0.005201967081
scalar geant_cost_network.client[10] 	interests_sent[10] 	180511
scalar geant_cost_network.client[12] 	hdistance[12] 	3.7899839886141
scalar geant_cost_network.client[12] 	downloads[12] 	179872
scalar geant_cost_network.client[12] 	avg_time[12] 	0.004319853347
scalar geant_cost_network.client[12] 	interests_sent[12] 	180636
scalar geant_cost_network.client[20] 	hdistance[20] 	3.9437922985205
scalar geant_cost_network.client[20] 	downloads[20] 	178641
scalar geant_cost_network.client[20] 	avg_time[20] 	0.006942232791
scalar geant_cost_network.client[20] 	interests_sent[20] 	180200
