version 2
run General-23-20140630-13:03:34-25862
>>>>>>> e1705686414f379fcb9d06a9e50f5d7fe13c2c97
attr D costprobprodcorr0.01
attr F spr
attr R lru
attr a 1
attr configname General
attr csize 1e3
attr ctlg 1e5
attr datetime 20140630-13:03:34
>>>>>>> e1705686414f379fcb9d06a9e50f5d7fe13c2c97
attr experiment General
attr inifile omnetpp.ini
attr iterationvars "$net=geant_cost, $rep=13, $priceratiovalue=10, $weights=0.333_0.333_0.334, $lambda=100, $a=1, $ctlg=1e5, $F=spr, $ttl=1000, $D=costprobprodcorr0.01, $xi=1, $R=lru, $csize=1e3, $pricebits=0, $window=60, $variance=0.05, $mytime=1800"
attr iterationvars2 "$net=geant_cost, $rep=13, $priceratiovalue=10, $weights=0.333_0.333_0.334, $lambda=100, $a=1, $ctlg=1e5, $F=spr, $ttl=1000, $D=costprobprodcorr0.01, $xi=1, $R=lru, $csize=1e3, $pricebits=0, $window=60, $variance=0.05, $mytime=1800, $repetition=0"
attr lambda 100
attr measurement "$net=geant_cost, $rep=13, $priceratiovalue=10, $weights=0.333_0.333_0.334, $lambda=100, $a=1, $ctlg=1e5, $F=spr, $ttl=1000, $D=costprobprodcorr0.01, $xi=1, $R=lru, $csize=1e3, $pricebits=0, $window=60, $variance=0.05, $mytime=1800"
attr mytime 1800
attr net geant_cost
attr network "networks.${net=geant_cost, abilene_cost}_network"
attr pricebits 0
attr priceratiovalue 10
attr processid 25862
>>>>>>> e1705686414f379fcb9d06a9e50f5d7fe13c2c97
attr rep 13
attr repetition 0
attr replication #0
attr resultdir results
attr runnumber 23
attr seedset 13
attr ttl 1000
attr variance 0.05
attr weights 0.333_0.333_0.334
attr window 60
attr xi 1

scalar . 	a 	1
scalar . 	csize 	1e3
scalar . 	ctlg 	1e5
scalar . 	lambda 	100
scalar . 	mytime 	1800
scalar . 	pricebits 	0
scalar . 	priceratiovalue 	10
scalar . 	rep 	13
scalar . 	ttl 	1000
scalar . 	variance 	0.05
scalar . 	window 	60
scalar . 	xi 	1
scalar geant_cost_network.content_distribution 	repo-0 	22
scalar geant_cost_network.content_distribution 	repo-1 	23
scalar geant_cost_network.content_distribution 	repo-2 	24
scalar geant_cost_network.content_distribution 	client-0 	20
scalar geant_cost_network.content_distribution 	client-1 	10
scalar geant_cost_network.content_distribution 	client-2 	12
scalar geant_cost_network.content_distribution 	client-3 	9
scalar geant_cost_network.content_distribution 	client-4 	5
scalar geant_cost_network.content_distribution 	repo-0_card 	33150
scalar geant_cost_network.content_distribution 	repo-1_card 	33483
scalar geant_cost_network.content_distribution 	repo-2_card 	33367
scalar geant_cost_network.statistics 	repo_popularity[0] 	0.32452364638376
scalar geant_cost_network.statistics 	repo_popularity[1] 	0.39627169592308
scalar geant_cost_network.statistics 	repo_popularity[2] 	0.27920465769315
scalar geant_cost_network.statistics 	stabilization_time 	36060
scalar geant_cost_network.node[7].face$o[4].channel 	price[7] 	0
scalar geant_cost_network.node[7].face$o[4].channel 	represented_price[7] 	0
scalar geant_cost_network.node[8].face$o[3].channel 	price[8] 	0
scalar geant_cost_network.node[8].face$o[3].channel 	represented_price[8] 	0
scalar geant_cost_network.node[21].face$o[5].channel 	price[21] 	0
scalar geant_cost_network.node[21].face$o[5].channel 	represented_price[21] 	0
scalar geant_cost_network.node[22].face$o[1].channel 	price[22] 	0
scalar geant_cost_network.node[22].face$o[1].channel 	represented_price[22] 	0
scalar geant_cost_network.node[23].face$o[1].channel 	price[23] 	1
scalar geant_cost_network.node[23].face$o[1].channel 	represented_price[23] 	1
scalar geant_cost_network.node[24].face$o[1].channel 	price[24] 	10
scalar geant_cost_network.node[24].face$o[1].channel 	represented_price[24] 	10
scalar geant_cost_network.statistics 	p_hit 	0.084713595234972
scalar geant_cost_network.statistics 	interests 	138744.2
scalar geant_cost_network.statistics 	data 	102751.52
scalar geant_cost_network.statistics 	hdistance 	3.5387885413719
scalar geant_cost_network.statistics 	avg_time 	0.005538284355
scalar geant_cost_network.statistics 	downloads 	896580
scalar geant_cost_network.statistics 	total_cost 	1680320
scalar geant_cost_network.statistics 	total_replicas 	100000
scalar geant_cost_network.statistics 	inner_hit 	0.32828972317027
scalar geant_cost_network.statistics 	interests_sent 	899817
scalar geant_cost_network.node[0].core_layer 	interests[0] 	0
scalar geant_cost_network.node[0].core_layer 	data[0] 	0
scalar geant_cost_network.node[0].core_layer 	repo_int[0] 	602242
scalar geant_cost_network.node[0].content_store 	p_hit[0] 	-nan
scalar geant_cost_network.node[0].content_store 	hits[0] 	0
scalar geant_cost_network.node[0].content_store 	misses[0] 	0
scalar geant_cost_network.node[0].content_store 	decision_yes[0] 	0
scalar geant_cost_network.node[0].content_store 	decision_no[0] 	0
scalar geant_cost_network.node[0].content_store 	decision_ratio[0] 	0
scalar geant_cost_network.node[0].content_store 	correction_factor[0] 	0.0027225701061802
scalar geant_cost_network.node[0].content_store 	xi[0] 	1
scalar geant_cost_network.node[1].core_layer 	interests[1] 	0
scalar geant_cost_network.node[1].core_layer 	data[1] 	0
scalar geant_cost_network.node[1].content_store 	p_hit[1] 	-nan
scalar geant_cost_network.node[1].content_store 	hits[1] 	0
scalar geant_cost_network.node[1].content_store 	misses[1] 	0
scalar geant_cost_network.node[1].content_store 	decision_yes[1] 	0
scalar geant_cost_network.node[1].content_store 	decision_no[1] 	0
scalar geant_cost_network.node[1].content_store 	decision_ratio[1] 	0
scalar geant_cost_network.node[1].content_store 	correction_factor[1] 	0.0027225701061802
scalar geant_cost_network.node[1].content_store 	xi[1] 	1
scalar geant_cost_network.node[2].core_layer 	interests[2] 	0
scalar geant_cost_network.node[2].core_layer 	data[2] 	0
scalar geant_cost_network.node[2].content_store 	p_hit[2] 	-nan
scalar geant_cost_network.node[2].content_store 	hits[2] 	0
scalar geant_cost_network.node[2].content_store 	misses[2] 	0
scalar geant_cost_network.node[2].content_store 	decision_yes[2] 	0
scalar geant_cost_network.node[2].content_store 	decision_no[2] 	0
scalar geant_cost_network.node[2].content_store 	decision_ratio[2] 	0
scalar geant_cost_network.node[2].content_store 	correction_factor[2] 	0.0027225701061802
scalar geant_cost_network.node[2].content_store 	xi[2] 	1
scalar geant_cost_network.node[3].core_layer 	interests[3] 	190542
scalar geant_cost_network.node[3].core_layer 	data[3] 	172412
scalar geant_cost_network.node[3].content_store 	p_hit[3] 	0.095149625804285
scalar geant_cost_network.node[3].content_store 	hits[3] 	18130
scalar geant_cost_network.node[3].content_store 	misses[3] 	172412
scalar geant_cost_network.node[3].content_store 	decision_yes[3] 	2473
scalar geant_cost_network.node[3].content_store 	decision_no[3] 	169939
scalar geant_cost_network.node[3].content_store 	decision_ratio[3] 	0.014343549172911
scalar geant_cost_network.node[3].content_store 	correction_factor[3] 	0.0027225701061802
scalar geant_cost_network.node[3].content_store 	xi[3] 	1
scalar geant_cost_network.node[4].core_layer 	interests[4] 	273232
scalar geant_cost_network.node[4].core_layer 	data[4] 	254855
scalar geant_cost_network.node[4].content_store 	p_hit[4] 	0.066796714879663
scalar geant_cost_network.node[4].content_store 	hits[4] 	18251
scalar geant_cost_network.node[4].content_store 	misses[4] 	254981
scalar geant_cost_network.node[4].content_store 	decision_yes[4] 	2387
scalar geant_cost_network.node[4].content_store 	decision_no[4] 	252468
scalar geant_cost_network.node[4].content_store 	decision_ratio[4] 	0.0093661101410606
scalar geant_cost_network.node[4].content_store 	correction_factor[4] 	0.0027225701061802
scalar geant_cost_network.node[4].content_store 	xi[4] 	1
scalar geant_cost_network.node[5].core_layer 	interests[5] 	180177
scalar geant_cost_network.node[5].core_layer 	data[5] 	170500
scalar geant_cost_network.node[5].content_store 	p_hit[5] 	0.043557168784029
scalar geant_cost_network.node[5].content_store 	hits[5] 	7848
scalar geant_cost_network.node[5].content_store 	misses[5] 	172329
scalar geant_cost_network.node[5].content_store 	decision_yes[5] 	904
scalar geant_cost_network.node[5].content_store 	decision_no[5] 	169596
scalar geant_cost_network.node[5].content_store 	decision_ratio[5] 	0.0053020527859238
scalar geant_cost_network.node[5].content_store 	correction_factor[5] 	0.0027225701061802
scalar geant_cost_network.node[5].content_store 	xi[5] 	1
scalar geant_cost_network.node[6].core_layer 	interests[6] 	126440
scalar geant_cost_network.node[6].core_layer 	data[6] 	115397
scalar geant_cost_network.node[6].content_store 	p_hit[6] 	0.087329958873774
scalar geant_cost_network.node[6].content_store 	hits[6] 	11042
scalar geant_cost_network.node[6].content_store 	misses[6] 	115398
scalar geant_cost_network.node[6].content_store 	decision_yes[6] 	91
scalar geant_cost_network.node[6].content_store 	decision_no[6] 	115306
scalar geant_cost_network.node[6].content_store 	decision_ratio[6] 	0.00078858202552926
scalar geant_cost_network.node[6].content_store 	correction_factor[6] 	0.0027225701061802
scalar geant_cost_network.node[6].content_store 	xi[6] 	1
scalar geant_cost_network.node[7].core_layer 	interests[7] 	390321
scalar geant_cost_network.node[7].core_layer 	data[7] 	378210
scalar geant_cost_network.node[7].content_store 	p_hit[7] 	0.031005249525391
scalar geant_cost_network.node[7].content_store 	hits[7] 	12102
scalar geant_cost_network.node[7].content_store 	misses[7] 	378219
scalar geant_cost_network.node[7].content_store 	decision_yes[7] 	183
scalar geant_cost_network.node[7].content_store 	decision_no[7] 	378027
scalar geant_cost_network.node[7].content_store 	decision_ratio[7] 	0.0004838581740303
scalar geant_cost_network.node[7].content_store 	correction_factor[7] 	0.0027225701061802
scalar geant_cost_network.node[7].content_store 	xi[7] 	1
scalar geant_cost_network.node[8].core_layer 	interests[8] 	328822
scalar geant_cost_network.node[8].core_layer 	data[8] 	275579
scalar geant_cost_network.node[8].content_store 	p_hit[8] 	0.16192043111471
scalar geant_cost_network.node[8].content_store 	hits[8] 	53243
scalar geant_cost_network.node[8].content_store 	misses[8] 	275579
scalar geant_cost_network.node[8].content_store 	decision_yes[8] 	443
scalar geant_cost_network.node[8].content_store 	decision_no[8] 	275136
scalar geant_cost_network.node[8].content_store 	decision_ratio[8] 	0.0016075245210992
scalar geant_cost_network.node[8].content_store 	correction_factor[8] 	0.0027225701061802
scalar geant_cost_network.node[8].content_store 	xi[8] 	1
scalar geant_cost_network.node[9].core_layer 	interests[9] 	424112
scalar geant_cost_network.node[9].core_layer 	data[9] 	330430
scalar geant_cost_network.node[9].content_store 	p_hit[9] 	0.2199018183876
scalar geant_cost_network.node[9].content_store 	hits[9] 	93263
scalar geant_cost_network.node[9].content_store 	misses[9] 	330849
scalar geant_cost_network.node[9].content_store 	decision_yes[9] 	1796
scalar geant_cost_network.node[9].content_store 	decision_no[9] 	328634
scalar geant_cost_network.node[9].content_store 	decision_ratio[9] 	0.0054353418273159
scalar geant_cost_network.node[9].content_store 	correction_factor[9] 	0.0027225701061802
scalar geant_cost_network.node[9].content_store 	xi[9] 	1
scalar geant_cost_network.node[10].core_layer 	interests[10] 	179658
scalar geant_cost_network.node[10].core_layer 	data[10] 	173273
scalar geant_cost_network.node[10].content_store 	p_hit[10] 	0.032673190172439
scalar geant_cost_network.node[10].content_store 	hits[10] 	5870
scalar geant_cost_network.node[10].content_store 	misses[10] 	173788
scalar geant_cost_network.node[10].content_store 	decision_yes[10] 	884
scalar geant_cost_network.node[10].content_store 	decision_no[10] 	172389
scalar geant_cost_network.node[10].content_store 	decision_ratio[10] 	0.0051017758104263
scalar geant_cost_network.node[10].content_store 	correction_factor[10] 	0.0027225701061802
scalar geant_cost_network.node[10].content_store 	xi[10] 	1
scalar geant_cost_network.node[11].core_layer 	interests[11] 	0
scalar geant_cost_network.node[11].core_layer 	data[11] 	0
scalar geant_cost_network.node[11].content_store 	p_hit[11] 	-nan
scalar geant_cost_network.node[11].content_store 	hits[11] 	0
scalar geant_cost_network.node[11].content_store 	misses[11] 	0
scalar geant_cost_network.node[11].content_store 	decision_yes[11] 	0
scalar geant_cost_network.node[11].content_store 	decision_no[11] 	0
scalar geant_cost_network.node[11].content_store 	decision_ratio[11] 	0
scalar geant_cost_network.node[11].content_store 	correction_factor[11] 	0.0027225701061802
scalar geant_cost_network.node[11].content_store 	xi[11] 	1
scalar geant_cost_network.node[12].core_layer 	interests[12] 	268900
scalar geant_cost_network.node[12].core_layer 	data[12] 	261377
scalar geant_cost_network.node[12].content_store 	p_hit[12] 	0.026113796950539
scalar geant_cost_network.node[12].content_store 	hits[12] 	7022
scalar geant_cost_network.node[12].content_store 	misses[12] 	261878
scalar geant_cost_network.node[12].content_store 	decision_yes[12] 	2502
scalar geant_cost_network.node[12].content_store 	decision_no[12] 	258875
scalar geant_cost_network.node[12].content_store 	decision_ratio[12] 	0.0095723801252597
scalar geant_cost_network.node[12].content_store 	correction_factor[12] 	0.0027225701061802
scalar geant_cost_network.node[12].content_store 	xi[12] 	1
scalar geant_cost_network.node[13].core_layer 	interests[13] 	0
scalar geant_cost_network.node[13].core_layer 	data[13] 	0
scalar geant_cost_network.node[13].content_store 	p_hit[13] 	-nan
scalar geant_cost_network.node[13].content_store 	hits[13] 	0
scalar geant_cost_network.node[13].content_store 	misses[13] 	0
scalar geant_cost_network.node[13].content_store 	decision_yes[13] 	0
scalar geant_cost_network.node[13].content_store 	decision_no[13] 	0
scalar geant_cost_network.node[13].content_store 	decision_ratio[13] 	0
scalar geant_cost_network.node[13].content_store 	correction_factor[13] 	0.0027225701061802
scalar geant_cost_network.node[13].content_store 	xi[13] 	1
scalar geant_cost_network.node[14].core_layer 	interests[14] 	44061
scalar geant_cost_network.node[14].core_layer 	data[14] 	36268
scalar geant_cost_network.node[14].content_store 	p_hit[14] 	0.17686843240054
scalar geant_cost_network.node[14].content_store 	hits[14] 	7793
scalar geant_cost_network.node[14].content_store 	misses[14] 	36268
scalar geant_cost_network.node[14].content_store 	decision_yes[14] 	853
scalar geant_cost_network.node[14].content_store 	decision_no[14] 	35415
scalar geant_cost_network.node[14].content_store 	decision_ratio[14] 	0.023519355906033
scalar geant_cost_network.node[14].content_store 	correction_factor[14] 	0.0027225701061802
scalar geant_cost_network.node[14].content_store 	xi[14] 	1
scalar geant_cost_network.node[15].core_layer 	interests[15] 	0
scalar geant_cost_network.node[15].core_layer 	data[15] 	0
scalar geant_cost_network.node[15].content_store 	p_hit[15] 	-nan
scalar geant_cost_network.node[15].content_store 	hits[15] 	0
scalar geant_cost_network.node[15].content_store 	misses[15] 	0
scalar geant_cost_network.node[15].content_store 	decision_yes[15] 	0
scalar geant_cost_network.node[15].content_store 	decision_no[15] 	0
scalar geant_cost_network.node[15].content_store 	decision_ratio[15] 	0
scalar geant_cost_network.node[15].content_store 	correction_factor[15] 	0.0027225701061802
scalar geant_cost_network.node[15].content_store 	xi[15] 	1
scalar geant_cost_network.node[16].core_layer 	interests[16] 	0
scalar geant_cost_network.node[16].core_layer 	data[16] 	0
scalar geant_cost_network.node[16].content_store 	p_hit[16] 	-nan
scalar geant_cost_network.node[16].content_store 	hits[16] 	0
scalar geant_cost_network.node[16].content_store 	misses[16] 	0
scalar geant_cost_network.node[16].content_store 	decision_yes[16] 	0
scalar geant_cost_network.node[16].content_store 	decision_no[16] 	0
scalar geant_cost_network.node[16].content_store 	decision_ratio[16] 	0
scalar geant_cost_network.node[16].content_store 	correction_factor[16] 	0.0027225701061802
scalar geant_cost_network.node[16].content_store 	xi[16] 	1
scalar geant_cost_network.node[17].core_layer 	interests[17] 	0
scalar geant_cost_network.node[17].core_layer 	data[17] 	0
scalar geant_cost_network.node[17].content_store 	p_hit[17] 	-nan
scalar geant_cost_network.node[17].content_store 	hits[17] 	0
scalar geant_cost_network.node[17].content_store 	misses[17] 	0
scalar geant_cost_network.node[17].content_store 	decision_yes[17] 	0
scalar geant_cost_network.node[17].content_store 	decision_no[17] 	0
scalar geant_cost_network.node[17].content_store 	decision_ratio[17] 	0
scalar geant_cost_network.node[17].content_store 	correction_factor[17] 	0.0027225701061802
scalar geant_cost_network.node[17].content_store 	xi[17] 	1
scalar geant_cost_network.node[18].core_layer 	interests[18] 	105736
scalar geant_cost_network.node[18].core_layer 	data[18] 	100820
scalar geant_cost_network.node[18].content_store 	p_hit[18] 	0.046502610274646
scalar geant_cost_network.node[18].content_store 	hits[18] 	4917
scalar geant_cost_network.node[18].content_store 	misses[18] 	100819
scalar geant_cost_network.node[18].content_store 	decision_yes[18] 	83
scalar geant_cost_network.node[18].content_store 	decision_no[18] 	100737
scalar geant_cost_network.node[18].content_store 	decision_ratio[18] 	0.00082324935528665
scalar geant_cost_network.node[18].content_store 	correction_factor[18] 	0.0027225701061802
scalar geant_cost_network.node[18].content_store 	xi[18] 	1
scalar geant_cost_network.node[19].core_layer 	interests[19] 	0
scalar geant_cost_network.node[19].core_layer 	data[19] 	0
scalar geant_cost_network.node[19].content_store 	p_hit[19] 	-nan
scalar geant_cost_network.node[19].content_store 	hits[19] 	0
scalar geant_cost_network.node[19].content_store 	misses[19] 	0
scalar geant_cost_network.node[19].content_store 	decision_yes[19] 	0
scalar geant_cost_network.node[19].content_store 	decision_no[19] 	0
scalar geant_cost_network.node[19].content_store 	decision_ratio[19] 	0
scalar geant_cost_network.node[19].content_store 	correction_factor[19] 	0.0027225701061802
scalar geant_cost_network.node[19].content_store 	xi[19] 	1
scalar geant_cost_network.node[20].core_layer 	interests[20] 	180281
scalar geant_cost_network.node[20].core_layer 	data[20] 	147590
scalar geant_cost_network.node[20].content_store 	p_hit[20] 	0.17945873386547
scalar geant_cost_network.node[20].content_store 	hits[20] 	32353
scalar geant_cost_network.node[20].content_store 	misses[20] 	147928
scalar geant_cost_network.node[20].content_store 	decision_yes[20] 	968
scalar geant_cost_network.node[20].content_store 	decision_no[20] 	146622
scalar geant_cost_network.node[20].content_store 	decision_ratio[20] 	0.0065587099396978
scalar geant_cost_network.node[20].content_store 	correction_factor[20] 	0.0027225701061802
scalar geant_cost_network.node[20].content_store 	xi[20] 	1
scalar geant_cost_network.node[21].core_layer 	interests[21] 	174081
scalar geant_cost_network.node[21].core_layer 	data[21] 	152077
scalar geant_cost_network.node[21].content_store 	p_hit[21] 	0.12640092830349
scalar geant_cost_network.node[21].content_store 	hits[21] 	22004
scalar geant_cost_network.node[21].content_store 	misses[21] 	152077
scalar geant_cost_network.node[21].content_store 	decision_yes[21] 	4084
scalar geant_cost_network.node[21].content_store 	decision_no[21] 	147993
scalar geant_cost_network.node[21].content_store 	decision_ratio[21] 	0.02685481696772
scalar geant_cost_network.node[21].content_store 	correction_factor[21] 	0.0027225701061802
scalar geant_cost_network.node[21].content_store 	xi[21] 	1
scalar geant_cost_network.node[22].core_layer 	interests[22] 	290615
scalar geant_cost_network.node[22].core_layer 	repo_load[22] 	290615
scalar geant_cost_network.node[22].core_layer 	data[22] 	0
scalar geant_cost_network.node[22].content_store 	p_hit[22] 	0
scalar geant_cost_network.node[22].content_store 	hits[22] 	0
scalar geant_cost_network.node[22].content_store 	misses[22] 	290615
scalar geant_cost_network.node[22].content_store 	decision_yes[22] 	0
scalar geant_cost_network.node[22].content_store 	decision_no[22] 	290615
scalar geant_cost_network.node[22].content_store 	decision_ratio[22] 	0
scalar geant_cost_network.node[23].core_layer 	interests[23] 	159550
scalar geant_cost_network.node[23].core_layer 	repo_load[23] 	159550
scalar geant_cost_network.node[23].core_layer 	data[23] 	0
scalar geant_cost_network.node[23].content_store 	p_hit[23] 	0
scalar geant_cost_network.node[23].content_store 	hits[23] 	0
scalar geant_cost_network.node[23].content_store 	misses[23] 	159550
scalar geant_cost_network.node[23].content_store 	decision_yes[23] 	0
scalar geant_cost_network.node[23].content_store 	decision_no[23] 	159550
scalar geant_cost_network.node[23].content_store 	decision_ratio[23] 	0
scalar geant_cost_network.node[24].core_layer 	interests[24] 	152077
scalar geant_cost_network.node[24].core_layer 	repo_load[24] 	152077
scalar geant_cost_network.node[24].core_layer 	data[24] 	0
scalar geant_cost_network.node[24].content_store 	p_hit[24] 	0
scalar geant_cost_network.node[24].content_store 	hits[24] 	0
scalar geant_cost_network.node[24].content_store 	misses[24] 	152077
scalar geant_cost_network.node[24].content_store 	decision_yes[24] 	0
scalar geant_cost_network.node[24].content_store 	decision_no[24] 	152077
scalar geant_cost_network.node[24].content_store 	decision_ratio[24] 	0
scalar geant_cost_network.client[5] 	hdistance[5] 	3.4363491600691
scalar geant_cost_network.client[5] 	downloads[5] 	178348
scalar geant_cost_network.client[5] 	avg_time[5] 	0.009425161982
scalar geant_cost_network.client[5] 	interests_sent[5] 	180177
scalar geant_cost_network.client[9] 	hdistance[9] 	3.1274958437356
scalar geant_cost_network.client[9] 	downloads[9] 	179849
scalar geant_cost_network.client[9] 	avg_time[9] 	0.003133174645
scalar geant_cost_network.client[9] 	interests_sent[9] 	180004
scalar geant_cost_network.client[10] 	hdistance[10] 	4.0150271012543
scalar geant_cost_network.client[10] 	downloads[10] 	179143
scalar geant_cost_network.client[10] 	avg_time[10] 	0.004919305645
scalar geant_cost_network.client[10] 	interests_sent[10] 	179658
scalar geant_cost_network.client[12] 	hdistance[12] 	3.6271660987077
scalar geant_cost_network.client[12] 	downloads[12] 	179297
scalar geant_cost_network.client[12] 	avg_time[12] 	0.004185851084
scalar geant_cost_network.client[12] 	interests_sent[12] 	179697
scalar geant_cost_network.client[20] 	hdistance[20] 	3.4879045030927
scalar geant_cost_network.client[20] 	downloads[20] 	179943
scalar geant_cost_network.client[20] 	avg_time[20] 	0.006027928422
scalar geant_cost_network.client[20] 	interests_sent[20] 	180281
