version 2
run General-2151-20140422-20:24:43-4130
attr D fix0.01
attr F nrr
attr R lru
attr a 0
attr configname General
attr csize 10
attr ctlg 10^3
attr datetime 20140422-20:24:43
attr experiment General
attr inifile omnetpp.ini
attr iterationvars "$net=simple_scenario, $rep=18, $priceratiovalue=10, $a=0, $ctlg=10^3, $F=nrr, $ttl=1000, $D=fix0.01, $R=lru, $csize=10"
attr iterationvars2 "$net=simple_scenario, $rep=18, $priceratiovalue=10, $a=0, $ctlg=10^3, $F=nrr, $ttl=1000, $D=fix0.01, $R=lru, $csize=10, $repetition=0"
attr measurement "$net=simple_scenario, $rep=18, $priceratiovalue=10, $a=0, $ctlg=10^3, $F=nrr, $ttl=1000, $D=fix0.01, $R=lru, $csize=10"
attr net simple_scenario
attr network networks.${net=simple_scenario}_network
attr priceratiovalue 10
attr processid 4130
attr rep 18
attr repetition 0
attr replication #0
attr resultdir results
attr runnumber 2151
attr seedset 18
attr ttl 1000

scalar . 	a 	0
scalar . 	csize 	10
scalar . 	priceratiovalue 	10
scalar . 	rep 	18
scalar . 	ttl 	1000
scalar simple_scenario_network.content_distribution 	repo-0 	3
scalar simple_scenario_network.content_distribution 	repo-1 	4
scalar simple_scenario_network.content_distribution 	client-0 	0
scalar simple_scenario_network.content_distribution 	repo-0_card 	499
scalar simple_scenario_network.content_distribution 	repo-1_card 	501
scalar simple_scenario_network.statistics 	p_hit 	0.0099155033201827
scalar simple_scenario_network.statistics 	interests 	106560.4
scalar simple_scenario_network.statistics 	data 	70568.8
scalar simple_scenario_network.statistics 	hdistance 	2.9313450916325
scalar simple_scenario_network.statistics 	avg_time 	0.001999756158
scalar simple_scenario_network.statistics 	downloads 	179958
scalar simple_scenario_network.statistics 	total_cost 	87442
scalar simple_scenario_network.node[0].core_layer 	interests[0] 	179958
scalar simple_scenario_network.node[0].core_layer 	data[0] 	178169
scalar simple_scenario_network.node[0].core_layer 	repo_int[0] 	174675
scalar simple_scenario_network.node[0].content_store 	p_hit[0] 	0.0099412085042065
scalar simple_scenario_network.node[0].content_store 	hits[0] 	1789
scalar simple_scenario_network.node[0].content_store 	misses[0] 	178169
scalar simple_scenario_network.node[1].core_layer 	interests[1] 	88965
scalar simple_scenario_network.node[1].core_layer 	data[1] 	87209
scalar simple_scenario_network.node[1].content_store 	p_hit[1] 	0.019738099252515
scalar simple_scenario_network.node[1].content_store 	hits[1] 	1756
scalar simple_scenario_network.node[1].content_store 	misses[1] 	87209
scalar simple_scenario_network.node[2].core_layer 	interests[2] 	89204
scalar simple_scenario_network.node[2].core_layer 	data[2] 	87466
scalar simple_scenario_network.node[2].content_store 	p_hit[2] 	0.019483431236267
scalar simple_scenario_network.node[2].content_store 	hits[2] 	1738
scalar simple_scenario_network.node[2].content_store 	misses[2] 	87466
scalar simple_scenario_network.node[3].core_layer 	interests[3] 	87209
scalar simple_scenario_network.node[3].core_layer 	repo_load[3] 	87209
scalar simple_scenario_network.node[3].core_layer 	data[3] 	0
scalar simple_scenario_network.node[3].content_store 	p_hit[3] 	0
scalar simple_scenario_network.node[3].content_store 	hits[3] 	0
scalar simple_scenario_network.node[3].content_store 	misses[3] 	87209
scalar simple_scenario_network.node[4].core_layer 	interests[4] 	87466
scalar simple_scenario_network.node[4].core_layer 	repo_load[4] 	87466
scalar simple_scenario_network.node[4].core_layer 	data[4] 	0
scalar simple_scenario_network.node[4].content_store 	p_hit[4] 	0
scalar simple_scenario_network.node[4].content_store 	hits[4] 	0
scalar simple_scenario_network.node[4].content_store 	misses[4] 	87466
scalar simple_scenario_network.client[0] 	hdistance[0] 	2.9313450916325
scalar simple_scenario_network.client[0] 	downloads[0] 	179958
scalar simple_scenario_network.client[0] 	avg_time[0] 	0.001999756158
