version 2
run General-31-20140626-17:57:13-10871
attr D costprobprodcorr0.01
attr F spr
attr R lru
attr a 1
attr configname General
attr csize 1e3
attr ctlg 1e5
attr datetime 20140626-17:57:13
attr experiment General
attr inifile omnetpp.ini
attr iterationvars "$net=abilene_cost, $rep=4, $priceratiovalue=10, $weights=0.333_0.333_0.334, $lambda=100, $a=1, $ctlg=1e5, $F=spr, $ttl=1000, $D=costprobprodcorr0.01, $xi=1, $R=lru, $csize=1e3, $pricebits=0, $mytime=1800"
attr iterationvars2 "$net=abilene_cost, $rep=4, $priceratiovalue=10, $weights=0.333_0.333_0.334, $lambda=100, $a=1, $ctlg=1e5, $F=spr, $ttl=1000, $D=costprobprodcorr0.01, $xi=1, $R=lru, $csize=1e3, $pricebits=0, $mytime=1800, $repetition=0"
attr lambda 100
attr measurement "$net=abilene_cost, $rep=4, $priceratiovalue=10, $weights=0.333_0.333_0.334, $lambda=100, $a=1, $ctlg=1e5, $F=spr, $ttl=1000, $D=costprobprodcorr0.01, $xi=1, $R=lru, $csize=1e3, $pricebits=0, $mytime=1800"
attr mytime 1800
attr net abilene_cost
attr network "networks.${net=geant_cost, abilene_cost}_network"
attr pricebits 0
attr priceratiovalue 10
attr processid 10871
attr rep 4
attr repetition 0
attr replication #0
attr resultdir results
attr runnumber 31
attr seedset 4
attr ttl 1000
attr weights 0.333_0.333_0.334
attr xi 1

scalar . 	a 	1
scalar . 	csize 	1e3
scalar . 	ctlg 	1e5
scalar . 	lambda 	100
scalar . 	mytime 	1800
scalar . 	pricebits 	0
scalar . 	priceratiovalue 	10
scalar . 	rep 	4
scalar . 	ttl 	1000
scalar . 	xi 	1
scalar abilene_cost_network.content_distribution 	repo-0 	11
scalar abilene_cost_network.content_distribution 	repo-1 	12
scalar abilene_cost_network.content_distribution 	repo-2 	13
scalar abilene_cost_network.content_distribution 	client-0 	5
scalar abilene_cost_network.content_distribution 	client-1 	0
scalar abilene_cost_network.content_distribution 	client-2 	9
scalar abilene_cost_network.content_distribution 	repo-0_card 	33272
scalar abilene_cost_network.content_distribution 	repo-1_card 	33152
scalar abilene_cost_network.content_distribution 	repo-2_card 	33576
scalar abilene_cost_network.statistics 	repo_popularity[0] 	0.28234107170654
scalar abilene_cost_network.statistics 	repo_popularity[1] 	0.30413978820018
scalar abilene_cost_network.statistics 	repo_popularity[2] 	0.41351914009327
scalar abilene_cost_network.statistics 	stabilization_time 	2342.4
scalar abilene_cost_network.node[1].face$o[4].channel 	price[1] 	0
scalar abilene_cost_network.node[1].face$o[4].channel 	represented_price[1] 	0
scalar abilene_cost_network.node[7].face$o[4].channel 	price[7] 	0
scalar abilene_cost_network.node[7].face$o[4].channel 	represented_price[7] 	0
scalar abilene_cost_network.node[10].face$o[4].channel 	price[10] 	0
scalar abilene_cost_network.node[10].face$o[4].channel 	represented_price[10] 	0
scalar abilene_cost_network.node[11].face$o[1].channel 	price[11] 	0
scalar abilene_cost_network.node[11].face$o[1].channel 	represented_price[11] 	0
scalar abilene_cost_network.node[12].face$o[1].channel 	price[12] 	1
scalar abilene_cost_network.node[12].face$o[1].channel 	represented_price[12] 	1
scalar abilene_cost_network.node[13].face$o[1].channel 	price[13] 	10
scalar abilene_cost_network.node[13].face$o[1].channel 	represented_price[13] 	10
scalar abilene_cost_network.statistics 	p_hit 	0.10486291218049
scalar abilene_cost_network.statistics 	interests 	143708.71428571
scalar abilene_cost_network.statistics 	data 	105200.78571429
scalar abilene_cost_network.statistics 	hdistance 	3.3792150742896
scalar abilene_cost_network.statistics 	avg_time 	0.01397876577
scalar abilene_cost_network.statistics 	downloads 	530945
scalar abilene_cost_network.statistics 	total_cost 	933632
scalar abilene_cost_network.statistics 	total_replicas 	100000
scalar abilene_cost_network.statistics 	inner_hit 	0.39735565830736
scalar abilene_cost_network.statistics 	interests_sent 	539110
scalar abilene_cost_network.node[0].core_layer 	interests[0] 	179561
scalar abilene_cost_network.node[0].core_layer 	data[0] 	164566
scalar abilene_cost_network.node[0].core_layer 	repo_int[0] 	319971
scalar abilene_cost_network.node[0].content_store 	p_hit[0] 	0.069976219780465
scalar abilene_cost_network.node[0].content_store 	hits[0] 	12565
scalar abilene_cost_network.node[0].content_store 	misses[0] 	166996
scalar abilene_cost_network.node[0].content_store 	decision_yes[0] 	868
scalar abilene_cost_network.node[0].content_store 	decision_no[0] 	163698
scalar abilene_cost_network.node[0].content_store 	decision_ratio[0] 	0.0052744795401237
scalar abilene_cost_network.node[0].content_store 	correction_factor[0] 	0.0027225701061802
scalar abilene_cost_network.node[0].content_store 	xi[0] 	1
scalar abilene_cost_network.node[1].core_layer 	interests[1] 	265927
scalar abilene_cost_network.node[1].core_layer 	data[1] 	185289
scalar abilene_cost_network.node[1].content_store 	p_hit[1] 	0.30322983375137
scalar abilene_cost_network.node[1].content_store 	hits[1] 	80637
scalar abilene_cost_network.node[1].content_store 	misses[1] 	185290
scalar abilene_cost_network.node[1].content_store 	decision_yes[1] 	2362
scalar abilene_cost_network.node[1].content_store 	decision_no[1] 	182927
scalar abilene_cost_network.node[1].content_store 	decision_ratio[1] 	0.012747653665355
scalar abilene_cost_network.node[1].content_store 	correction_factor[1] 	0.0027225701061802
scalar abilene_cost_network.node[1].content_store 	xi[1] 	1
scalar abilene_cost_network.node[2].core_layer 	interests[2] 	158800
scalar abilene_cost_network.node[2].core_layer 	data[2] 	146427
scalar abilene_cost_network.node[2].content_store 	p_hit[2] 	0.077921914357683
scalar abilene_cost_network.node[2].content_store 	hits[2] 	12374
scalar abilene_cost_network.node[2].content_store 	misses[2] 	146426
scalar abilene_cost_network.node[2].content_store 	decision_yes[2] 	785
scalar abilene_cost_network.node[2].content_store 	decision_no[2] 	145642
scalar abilene_cost_network.node[2].content_store 	decision_ratio[2] 	0.0053610331427947
scalar abilene_cost_network.node[2].content_store 	correction_factor[2] 	0.0027225701061802
scalar abilene_cost_network.node[2].content_store 	xi[2] 	1
scalar abilene_cost_network.node[3].core_layer 	interests[3] 	160084
scalar abilene_cost_network.node[3].core_layer 	data[3] 	151580
scalar abilene_cost_network.node[3].content_store 	p_hit[3] 	0.053128357612254
scalar abilene_cost_network.node[3].content_store 	hits[3] 	8505
scalar abilene_cost_network.node[3].content_store 	misses[3] 	151579
scalar abilene_cost_network.node[3].content_store 	decision_yes[3] 	783
scalar abilene_cost_network.node[3].content_store 	decision_no[3] 	150797
scalar abilene_cost_network.node[3].content_store 	decision_ratio[3] 	0.0051655891278533
scalar abilene_cost_network.node[3].content_store 	correction_factor[3] 	0.0027225701061802
scalar abilene_cost_network.node[3].content_store 	xi[3] 	1
scalar abilene_cost_network.node[4].core_layer 	interests[4] 	119576
scalar abilene_cost_network.node[4].core_layer 	data[4] 	113296
scalar abilene_cost_network.node[4].content_store 	p_hit[4] 	0.052518900113735
scalar abilene_cost_network.node[4].content_store 	hits[4] 	6280
scalar abilene_cost_network.node[4].content_store 	misses[4] 	113296
scalar abilene_cost_network.node[4].content_store 	decision_yes[4] 	735
scalar abilene_cost_network.node[4].content_store 	decision_no[4] 	112561
scalar abilene_cost_network.node[4].content_store 	decision_ratio[4] 	0.0064874311537918
scalar abilene_cost_network.node[4].content_store 	correction_factor[4] 	0.0027225701061802
scalar abilene_cost_network.node[4].content_store 	xi[4] 	1
scalar abilene_cost_network.node[5].core_layer 	interests[5] 	179569
scalar abilene_cost_network.node[5].core_layer 	data[5] 	169644
scalar abilene_cost_network.node[5].content_store 	p_hit[5] 	0.036470660303282
scalar abilene_cost_network.node[5].content_store 	hits[5] 	6549
scalar abilene_cost_network.node[5].content_store 	misses[5] 	173020
scalar abilene_cost_network.node[5].content_store 	decision_yes[5] 	787
scalar abilene_cost_network.node[5].content_store 	decision_no[5] 	168857
scalar abilene_cost_network.node[5].content_store 	decision_ratio[5] 	0.0046391266416732
scalar abilene_cost_network.node[5].content_store 	correction_factor[5] 	0.0027225701061802
scalar abilene_cost_network.node[5].content_store 	xi[5] 	1
scalar abilene_cost_network.node[6].core_layer 	interests[6] 	50068
scalar abilene_cost_network.node[6].core_layer 	data[6] 	45130
scalar abilene_cost_network.node[6].content_store 	p_hit[6] 	0.098625868818407
scalar abilene_cost_network.node[6].content_store 	hits[6] 	4938
scalar abilene_cost_network.node[6].content_store 	misses[6] 	45130
scalar abilene_cost_network.node[6].content_store 	decision_yes[6] 	63
scalar abilene_cost_network.node[6].content_store 	decision_no[6] 	45067
scalar abilene_cost_network.node[6].content_store 	decision_ratio[6] 	0.0013959672058498
scalar abilene_cost_network.node[6].content_store 	correction_factor[6] 	0.0027225701061802
scalar abilene_cost_network.node[6].content_store 	xi[6] 	1
scalar abilene_cost_network.node[7].core_layer 	interests[7] 	132751
scalar abilene_cost_network.node[7].core_layer 	data[7] 	83182
scalar abilene_cost_network.node[7].content_store 	p_hit[7] 	0.37339831715015
scalar abilene_cost_network.node[7].content_store 	hits[7] 	49569
scalar abilene_cost_network.node[7].content_store 	misses[7] 	83182
scalar abilene_cost_network.node[7].content_store 	decision_yes[7] 	221
scalar abilene_cost_network.node[7].content_store 	decision_no[7] 	82961
scalar abilene_cost_network.node[7].content_store 	decision_ratio[7] 	0.0026568247938256
scalar abilene_cost_network.node[7].content_store 	correction_factor[7] 	0.0027225701061802
scalar abilene_cost_network.node[7].content_store 	xi[7] 	1
scalar abilene_cost_network.node[8].core_layer 	interests[8] 	50562
scalar abilene_cost_network.node[8].core_layer 	data[8] 	44812
scalar abilene_cost_network.node[8].content_store 	p_hit[8] 	0.11372176733515
scalar abilene_cost_network.node[8].content_store 	hits[8] 	5750
scalar abilene_cost_network.node[8].content_store 	misses[8] 	44812
scalar abilene_cost_network.node[8].content_store 	decision_yes[8] 	82
scalar abilene_cost_network.node[8].content_store 	decision_no[8] 	44730
scalar abilene_cost_network.node[8].content_store 	decision_ratio[8] 	0.0018298669999107
scalar abilene_cost_network.node[8].content_store 	correction_factor[8] 	0.0027225701061802
scalar abilene_cost_network.node[8].content_store 	xi[8] 	1
scalar abilene_cost_network.node[9].core_layer 	interests[9] 	179980
scalar abilene_cost_network.node[9].core_layer 	data[9] 	164654
scalar abilene_cost_network.node[9].content_store 	p_hit[9] 	0.072046894099344
scalar abilene_cost_network.node[9].content_store 	hits[9] 	12967
scalar abilene_cost_network.node[9].content_store 	misses[9] 	167013
scalar abilene_cost_network.node[9].content_store 	decision_yes[9] 	847
scalar abilene_cost_network.node[9].content_store 	decision_no[9] 	163807
scalar abilene_cost_network.node[9].content_store 	decision_ratio[9] 	0.0051441203979253
scalar abilene_cost_network.node[9].content_store 	correction_factor[9] 	0.0027225701061802
scalar abilene_cost_network.node[9].content_store 	xi[9] 	1
scalar abilene_cost_network.node[10].core_layer 	interests[10] 	215073
scalar abilene_cost_network.node[10].core_layer 	data[10] 	204231
scalar abilene_cost_network.node[10].content_store 	p_hit[10] 	0.050410790754767
scalar abilene_cost_network.node[10].content_store 	hits[10] 	10842
scalar abilene_cost_network.node[10].content_store 	misses[10] 	204231
scalar abilene_cost_network.node[10].content_store 	decision_yes[10] 	767
scalar abilene_cost_network.node[10].content_store 	decision_no[10] 	203464
scalar abilene_cost_network.node[10].content_store 	decision_ratio[10] 	0.0037555513119948
scalar abilene_cost_network.node[10].content_store 	correction_factor[10] 	0.0027225701061802
scalar abilene_cost_network.node[10].content_store 	xi[10] 	1
scalar abilene_cost_network.node[11].core_layer 	interests[11] 	151744
scalar abilene_cost_network.node[11].core_layer 	repo_load[11] 	151744
scalar abilene_cost_network.node[11].core_layer 	data[11] 	0
scalar abilene_cost_network.node[11].content_store 	p_hit[11] 	0
scalar abilene_cost_network.node[11].content_store 	hits[11] 	0
scalar abilene_cost_network.node[11].content_store 	misses[11] 	151744
scalar abilene_cost_network.node[11].content_store 	decision_yes[11] 	0
scalar abilene_cost_network.node[11].content_store 	decision_no[11] 	151744
scalar abilene_cost_network.node[11].content_store 	decision_ratio[11] 	0
scalar abilene_cost_network.node[12].core_layer 	interests[12] 	83182
scalar abilene_cost_network.node[12].core_layer 	repo_load[12] 	83182
scalar abilene_cost_network.node[12].core_layer 	data[12] 	0
scalar abilene_cost_network.node[12].content_store 	p_hit[12] 	0
scalar abilene_cost_network.node[12].content_store 	hits[12] 	0
scalar abilene_cost_network.node[12].content_store 	misses[12] 	83182
scalar abilene_cost_network.node[12].content_store 	decision_yes[12] 	0
scalar abilene_cost_network.node[12].content_store 	decision_no[12] 	83182
scalar abilene_cost_network.node[12].content_store 	decision_ratio[12] 	0
scalar abilene_cost_network.node[13].core_layer 	interests[13] 	85045
scalar abilene_cost_network.node[13].core_layer 	repo_load[13] 	85045
scalar abilene_cost_network.node[13].core_layer 	data[13] 	0
scalar abilene_cost_network.node[13].content_store 	p_hit[13] 	0
scalar abilene_cost_network.node[13].content_store 	hits[13] 	0
scalar abilene_cost_network.node[13].content_store 	misses[13] 	85045
scalar abilene_cost_network.node[13].content_store 	decision_yes[13] 	0
scalar abilene_cost_network.node[13].content_store 	decision_no[13] 	85045
scalar abilene_cost_network.node[13].content_store 	decision_ratio[13] 	0
scalar abilene_cost_network.client[0] 	hdistance[0] 	2.9482360512841
scalar abilene_cost_network.client[0] 	downloads[0] 	177131
scalar abilene_cost_network.client[0] 	avg_time[0] 	0.013229290601
scalar abilene_cost_network.client[0] 	interests_sent[0] 	179561
scalar abilene_cost_network.client[5] 	hdistance[5] 	4.5105367409601
scalar abilene_cost_network.client[5] 	downloads[5] 	176193
scalar abilene_cost_network.client[5] 	avg_time[5] 	0.017533311825
scalar abilene_cost_network.client[5] 	interests_sent[5] 	179569
scalar abilene_cost_network.client[9] 	hdistance[9] 	2.6788724306248
scalar abilene_cost_network.client[9] 	downloads[9] 	177621
scalar abilene_cost_network.client[9] 	avg_time[9] 	0.011173694884
scalar abilene_cost_network.client[9] 	interests_sent[9] 	179980
