version 2
run General-31-20140626-17:00:18-16797
attr D costprobprodcorr0.01
attr F spr
attr R lru
attr a 1
attr configname General
attr csize 1e3
attr ctlg 1e5
attr datetime 20140626-17:00:18
attr experiment General
attr inifile omnetpp.ini
attr iterationvars "$net=abilene_cost, $rep=8, $priceratiovalue=10, $weights=0.333_0.333_0.334, $lambda=100, $a=1, $ctlg=1e5, $F=spr, $ttl=1000, $D=costprobprodcorr0.01, $xi=1, $R=lru, $csize=1e3, $pricebits=0, $mytime=1800"
attr iterationvars2 "$net=abilene_cost, $rep=8, $priceratiovalue=10, $weights=0.333_0.333_0.334, $lambda=100, $a=1, $ctlg=1e5, $F=spr, $ttl=1000, $D=costprobprodcorr0.01, $xi=1, $R=lru, $csize=1e3, $pricebits=0, $mytime=1800, $repetition=0"
attr lambda 100
attr measurement "$net=abilene_cost, $rep=8, $priceratiovalue=10, $weights=0.333_0.333_0.334, $lambda=100, $a=1, $ctlg=1e5, $F=spr, $ttl=1000, $D=costprobprodcorr0.01, $xi=1, $R=lru, $csize=1e3, $pricebits=0, $mytime=1800"
attr mytime 1800
attr net abilene_cost
attr network "networks.${net=geant_cost, abilene_cost}_network"
attr pricebits 0
attr priceratiovalue 10
attr processid 16797
attr rep 8
attr repetition 0
attr replication #0
attr resultdir results
attr runnumber 31
attr seedset 8
attr ttl 1000
attr weights 0.333_0.333_0.334
attr xi 1

scalar . 	a 	1
scalar . 	csize 	1e3
scalar . 	ctlg 	1e5
scalar . 	lambda 	100
scalar . 	mytime 	1800
scalar . 	pricebits 	0
scalar . 	priceratiovalue 	10
scalar . 	rep 	8
scalar . 	ttl 	1000
scalar . 	xi 	1
scalar abilene_cost_network.content_distribution 	repo-0 	11
scalar abilene_cost_network.content_distribution 	repo-1 	12
scalar abilene_cost_network.content_distribution 	repo-2 	13
scalar abilene_cost_network.content_distribution 	client-0 	5
scalar abilene_cost_network.content_distribution 	client-1 	0
scalar abilene_cost_network.content_distribution 	client-2 	9
scalar abilene_cost_network.content_distribution 	repo-0_card 	33481
scalar abilene_cost_network.content_distribution 	repo-1_card 	33257
scalar abilene_cost_network.content_distribution 	repo-2_card 	33262
scalar abilene_cost_network.statistics 	repo_popularity[0] 	0.31048403425595
scalar abilene_cost_network.statistics 	repo_popularity[1] 	0.33358081359224
scalar abilene_cost_network.statistics 	repo_popularity[2] 	0.35593515215181
scalar abilene_cost_network.statistics 	stabilization_time 	1745.4
scalar abilene_cost_network.node[1].face$o[4].channel 	price[1] 	0
scalar abilene_cost_network.node[1].face$o[4].channel 	represented_price[1] 	0
scalar abilene_cost_network.node[7].face$o[4].channel 	price[7] 	0
scalar abilene_cost_network.node[7].face$o[4].channel 	represented_price[7] 	0
scalar abilene_cost_network.node[10].face$o[4].channel 	price[10] 	0
scalar abilene_cost_network.node[10].face$o[4].channel 	represented_price[10] 	0
scalar abilene_cost_network.node[11].face$o[1].channel 	price[11] 	0
scalar abilene_cost_network.node[11].face$o[1].channel 	represented_price[11] 	0
scalar abilene_cost_network.node[12].face$o[1].channel 	price[12] 	1
scalar abilene_cost_network.node[12].face$o[1].channel 	represented_price[12] 	1
scalar abilene_cost_network.node[13].face$o[1].channel 	price[13] 	10
scalar abilene_cost_network.node[13].face$o[1].channel 	represented_price[13] 	10
scalar abilene_cost_network.statistics 	p_hit 	0.093328439508064
scalar abilene_cost_network.statistics 	interests 	147708
scalar abilene_cost_network.statistics 	data 	109146.85714286
scalar abilene_cost_network.statistics 	hdistance 	3.510198073939
scalar abilene_cost_network.statistics 	avg_time 	0.01445999858
scalar abilene_cost_network.statistics 	downloads 	531807
scalar abilene_cost_network.statistics 	total_cost 	927090
scalar abilene_cost_network.statistics 	total_replicas 	100000
scalar abilene_cost_network.statistics 	inner_hit 	0.36290045072743
scalar abilene_cost_network.statistics 	interests_sent 	539854
scalar abilene_cost_network.node[0].core_layer 	interests[0] 	179396
scalar abilene_cost_network.node[0].core_layer 	data[0] 	168749
scalar abilene_cost_network.node[0].core_layer 	repo_int[0] 	338814
scalar abilene_cost_network.node[0].content_store 	p_hit[0] 	0.046985440032108
scalar abilene_cost_network.node[0].content_store 	hits[0] 	8429
scalar abilene_cost_network.node[0].content_store 	misses[0] 	170967
scalar abilene_cost_network.node[0].content_store 	decision_yes[0] 	837
scalar abilene_cost_network.node[0].content_store 	decision_no[0] 	167912
scalar abilene_cost_network.node[0].content_store 	decision_ratio[0] 	0.0049600293927668
scalar abilene_cost_network.node[0].content_store 	correction_factor[0] 	0.0027225701061802
scalar abilene_cost_network.node[0].content_store 	xi[0] 	1
scalar abilene_cost_network.node[1].core_layer 	interests[1] 	273959
scalar abilene_cost_network.node[1].core_layer 	data[1] 	194556
scalar abilene_cost_network.node[1].content_store 	p_hit[1] 	0.28983169014342
scalar abilene_cost_network.node[1].content_store 	hits[1] 	79402
scalar abilene_cost_network.node[1].content_store 	misses[1] 	194557
scalar abilene_cost_network.node[1].content_store 	decision_yes[1] 	2336
scalar abilene_cost_network.node[1].content_store 	decision_no[1] 	192220
scalar abilene_cost_network.node[1].content_store 	decision_ratio[1] 	0.012006825798228
scalar abilene_cost_network.node[1].content_store 	correction_factor[1] 	0.0027225701061802
scalar abilene_cost_network.node[1].content_store 	xi[1] 	1
scalar abilene_cost_network.node[2].core_layer 	interests[2] 	163534
scalar abilene_cost_network.node[2].core_layer 	data[2] 	158365
scalar abilene_cost_network.node[2].content_store 	p_hit[2] 	0.03161422089596
scalar abilene_cost_network.node[2].content_store 	hits[2] 	5170
scalar abilene_cost_network.node[2].content_store 	misses[2] 	158364
scalar abilene_cost_network.node[2].content_store 	decision_yes[2] 	851
scalar abilene_cost_network.node[2].content_store 	decision_no[2] 	157514
scalar abilene_cost_network.node[2].content_store 	decision_ratio[2] 	0.0053736621096833
scalar abilene_cost_network.node[2].content_store 	correction_factor[2] 	0.0027225701061802
scalar abilene_cost_network.node[2].content_store 	xi[2] 	1
scalar abilene_cost_network.node[3].core_layer 	interests[3] 	163142
scalar abilene_cost_network.node[3].core_layer 	data[3] 	152265
scalar abilene_cost_network.node[3].content_store 	p_hit[3] 	0.066671979012149
scalar abilene_cost_network.node[3].content_store 	hits[3] 	10877
scalar abilene_cost_network.node[3].content_store 	misses[3] 	152265
scalar abilene_cost_network.node[3].content_store 	decision_yes[3] 	803
scalar abilene_cost_network.node[3].content_store 	decision_no[3] 	151462
scalar abilene_cost_network.node[3].content_store 	decision_ratio[3] 	0.0052737004564411
scalar abilene_cost_network.node[3].content_store 	correction_factor[3] 	0.0027225701061802
scalar abilene_cost_network.node[3].content_store 	xi[3] 	1
scalar abilene_cost_network.node[4].core_layer 	interests[4] 	114747
scalar abilene_cost_network.node[4].core_layer 	data[4] 	110948
scalar abilene_cost_network.node[4].content_store 	p_hit[4] 	0.033107619371313
scalar abilene_cost_network.node[4].content_store 	hits[4] 	3799
scalar abilene_cost_network.node[4].content_store 	misses[4] 	110948
scalar abilene_cost_network.node[4].content_store 	decision_yes[4] 	700
scalar abilene_cost_network.node[4].content_store 	decision_no[4] 	110248
scalar abilene_cost_network.node[4].content_store 	decision_ratio[4] 	0.006309261996611
scalar abilene_cost_network.node[4].content_store 	correction_factor[4] 	0.0027225701061802
scalar abilene_cost_network.node[4].content_store 	xi[4] 	1
scalar abilene_cost_network.node[5].core_layer 	interests[5] 	180748
scalar abilene_cost_network.node[5].core_layer 	data[5] 	169154
scalar abilene_cost_network.node[5].content_store 	p_hit[5] 	0.045361497775909
scalar abilene_cost_network.node[5].content_store 	hits[5] 	8199
scalar abilene_cost_network.node[5].content_store 	misses[5] 	172549
scalar abilene_cost_network.node[5].content_store 	decision_yes[5] 	832
scalar abilene_cost_network.node[5].content_store 	decision_no[5] 	168322
scalar abilene_cost_network.node[5].content_store 	decision_ratio[5] 	0.0049185948898637
scalar abilene_cost_network.node[5].content_store 	correction_factor[5] 	0.0027225701061802
scalar abilene_cost_network.node[5].content_store 	xi[5] 	1
scalar abilene_cost_network.node[6].core_layer 	interests[6] 	54407
scalar abilene_cost_network.node[6].core_layer 	data[6] 	45035
scalar abilene_cost_network.node[6].content_store 	p_hit[6] 	0.17225724631022
scalar abilene_cost_network.node[6].content_store 	hits[6] 	9372
scalar abilene_cost_network.node[6].content_store 	misses[6] 	45035
scalar abilene_cost_network.node[6].content_store 	decision_yes[6] 	75
scalar abilene_cost_network.node[6].content_store 	decision_no[6] 	44960
scalar abilene_cost_network.node[6].content_store 	decision_ratio[6] 	0.0016653713778173
scalar abilene_cost_network.node[6].content_store 	correction_factor[6] 	0.0027225701061802
scalar abilene_cost_network.node[6].content_store 	xi[6] 	1
scalar abilene_cost_network.node[7].core_layer 	interests[7] 	138929
scalar abilene_cost_network.node[7].core_layer 	data[7] 	88080
scalar abilene_cost_network.node[7].content_store 	p_hit[7] 	0.36600709715034
scalar abilene_cost_network.node[7].content_store 	hits[7] 	50849
scalar abilene_cost_network.node[7].content_store 	misses[7] 	88080
scalar abilene_cost_network.node[7].content_store 	decision_yes[7] 	225
scalar abilene_cost_network.node[7].content_store 	decision_no[7] 	87855
scalar abilene_cost_network.node[7].content_store 	decision_ratio[7] 	0.0025544959128065
scalar abilene_cost_network.node[7].content_store 	correction_factor[7] 	0.0027225701061802
scalar abilene_cost_network.node[7].content_store 	xi[7] 	1
scalar abilene_cost_network.node[8].core_layer 	interests[8] 	54931
scalar abilene_cost_network.node[8].core_layer 	data[8] 	50210
scalar abilene_cost_network.node[8].content_store 	p_hit[8] 	0.085944184522401
scalar abilene_cost_network.node[8].content_store 	hits[8] 	4721
scalar abilene_cost_network.node[8].content_store 	misses[8] 	50210
scalar abilene_cost_network.node[8].content_store 	decision_yes[8] 	68
scalar abilene_cost_network.node[8].content_store 	decision_no[8] 	50142
scalar abilene_cost_network.node[8].content_store 	decision_ratio[8] 	0.0013543118900617
scalar abilene_cost_network.node[8].content_store 	correction_factor[8] 	0.0027225701061802
scalar abilene_cost_network.node[8].content_store 	xi[8] 	1
scalar abilene_cost_network.node[9].core_layer 	interests[9] 	179710
scalar abilene_cost_network.node[9].core_layer 	data[9] 	169512
scalar abilene_cost_network.node[9].content_store 	p_hit[9] 	0.043202938066886
scalar abilene_cost_network.node[9].content_store 	hits[9] 	7764
scalar abilene_cost_network.node[9].content_store 	misses[9] 	171946
scalar abilene_cost_network.node[9].content_store 	decision_yes[9] 	802
scalar abilene_cost_network.node[9].content_store 	decision_no[9] 	168710
scalar abilene_cost_network.node[9].content_store 	decision_ratio[9] 	0.0047312284676011
scalar abilene_cost_network.node[9].content_store 	correction_factor[9] 	0.0027225701061802
scalar abilene_cost_network.node[9].content_store 	xi[9] 	1
scalar abilene_cost_network.node[10].core_layer 	interests[10] 	225595
scalar abilene_cost_network.node[10].core_layer 	data[10] 	221182
scalar abilene_cost_network.node[10].content_store 	p_hit[10] 	0.019561603758949
scalar abilene_cost_network.node[10].content_store 	hits[10] 	4413
scalar abilene_cost_network.node[10].content_store 	misses[10] 	221182
scalar abilene_cost_network.node[10].content_store 	decision_yes[10] 	741
scalar abilene_cost_network.node[10].content_store 	decision_no[10] 	220441
scalar abilene_cost_network.node[10].content_store 	decision_ratio[10] 	0.0033501822028917
scalar abilene_cost_network.node[10].content_store 	correction_factor[10] 	0.0027225701061802
scalar abilene_cost_network.node[10].content_store 	xi[10] 	1
scalar abilene_cost_network.node[11].core_layer 	interests[11] 	166833
scalar abilene_cost_network.node[11].core_layer 	repo_load[11] 	166833
scalar abilene_cost_network.node[11].core_layer 	data[11] 	0
scalar abilene_cost_network.node[11].content_store 	p_hit[11] 	0
scalar abilene_cost_network.node[11].content_store 	hits[11] 	0
scalar abilene_cost_network.node[11].content_store 	misses[11] 	166833
scalar abilene_cost_network.node[11].content_store 	decision_yes[11] 	0
scalar abilene_cost_network.node[11].content_store 	decision_no[11] 	166833
scalar abilene_cost_network.node[11].content_store 	decision_ratio[11] 	0
scalar abilene_cost_network.node[12].core_layer 	interests[12] 	88080
scalar abilene_cost_network.node[12].core_layer 	repo_load[12] 	88080
scalar abilene_cost_network.node[12].core_layer 	data[12] 	0
scalar abilene_cost_network.node[12].content_store 	p_hit[12] 	0
scalar abilene_cost_network.node[12].content_store 	hits[12] 	0
scalar abilene_cost_network.node[12].content_store 	misses[12] 	88080
scalar abilene_cost_network.node[12].content_store 	decision_yes[12] 	0
scalar abilene_cost_network.node[12].content_store 	decision_no[12] 	88080
scalar abilene_cost_network.node[12].content_store 	decision_ratio[12] 	0
scalar abilene_cost_network.node[13].core_layer 	interests[13] 	83901
scalar abilene_cost_network.node[13].core_layer 	repo_load[13] 	83901
scalar abilene_cost_network.node[13].core_layer 	data[13] 	0
scalar abilene_cost_network.node[13].content_store 	p_hit[13] 	0
scalar abilene_cost_network.node[13].content_store 	hits[13] 	0
scalar abilene_cost_network.node[13].content_store 	misses[13] 	83901
scalar abilene_cost_network.node[13].content_store 	decision_yes[13] 	0
scalar abilene_cost_network.node[13].content_store 	decision_no[13] 	83901
scalar abilene_cost_network.node[13].content_store 	decision_ratio[13] 	0
scalar abilene_cost_network.client[0] 	hdistance[0] 	3.0996229780221
scalar abilene_cost_network.client[0] 	downloads[0] 	177178
scalar abilene_cost_network.client[0] 	avg_time[0] 	0.013727013173
scalar abilene_cost_network.client[0] 	interests_sent[0] 	179396
scalar abilene_cost_network.client[5] 	hdistance[5] 	4.6122309743845
scalar abilene_cost_network.client[5] 	downloads[5] 	177353
scalar abilene_cost_network.client[5] 	avg_time[5] 	0.017768636922
scalar abilene_cost_network.client[5] 	interests_sent[5] 	180748
scalar abilene_cost_network.client[9] 	hdistance[9] 	2.8187402694104
scalar abilene_cost_network.client[9] 	downloads[9] 	177276
scalar abilene_cost_network.client[9] 	avg_time[9] 	0.011884345645
scalar abilene_cost_network.client[9] 	interests_sent[9] 	179710
