version 2
run General-63-20140627-19:58:00-22904
attr D costprobprodcorr0.01
attr F spr
attr R lru
attr a 1
attr configname General
attr csize 1e3
attr ctlg 1e5
attr datetime 20140627-19:58:00
attr experiment General
attr inifile omnetpp.ini
attr iterationvars "$net=abilene_cost, $rep=17, $priceratiovalue=10, $weights=0.333_0.333_0.334, $lambda=100, $a=1, $ctlg=1e5, $F=spr, $ttl=1000, $D=costprobprodcorr0.01, $xi=1, $R=lru, $csize=1e3, $pricebits=0, $window=60, $variance=0.05, $mytime=1800"
attr iterationvars2 "$net=abilene_cost, $rep=17, $priceratiovalue=10, $weights=0.333_0.333_0.334, $lambda=100, $a=1, $ctlg=1e5, $F=spr, $ttl=1000, $D=costprobprodcorr0.01, $xi=1, $R=lru, $csize=1e3, $pricebits=0, $window=60, $variance=0.05, $mytime=1800, $repetition=0"
attr lambda 100
attr measurement "$net=abilene_cost, $rep=17, $priceratiovalue=10, $weights=0.333_0.333_0.334, $lambda=100, $a=1, $ctlg=1e5, $F=spr, $ttl=1000, $D=costprobprodcorr0.01, $xi=1, $R=lru, $csize=1e3, $pricebits=0, $window=60, $variance=0.05, $mytime=1800"
attr mytime 1800
attr net abilene_cost
attr network "networks.${net=geant_cost, abilene_cost}_network"
attr pricebits 0
attr priceratiovalue 10
attr processid 22904
attr rep 17
attr repetition 0
attr replication #0
attr resultdir results
attr runnumber 63
attr seedset 17
attr ttl 1000
attr variance 0.05
attr weights 0.333_0.333_0.334
attr window 60
attr xi 1

scalar . 	a 	1
scalar . 	csize 	1e3
scalar . 	ctlg 	1e5
scalar . 	lambda 	100
scalar . 	mytime 	1800
scalar . 	pricebits 	0
scalar . 	priceratiovalue 	10
scalar . 	rep 	17
scalar . 	ttl 	1000
scalar . 	variance 	0.05
scalar . 	window 	60
scalar . 	xi 	1
scalar abilene_cost_network.content_distribution 	repo-0 	11
scalar abilene_cost_network.content_distribution 	repo-1 	12
scalar abilene_cost_network.content_distribution 	repo-2 	13
scalar abilene_cost_network.content_distribution 	client-0 	5
scalar abilene_cost_network.content_distribution 	client-1 	0
scalar abilene_cost_network.content_distribution 	client-2 	9
scalar abilene_cost_network.content_distribution 	repo-0_card 	33432
scalar abilene_cost_network.content_distribution 	repo-1_card 	33238
scalar abilene_cost_network.content_distribution 	repo-2_card 	33330
scalar abilene_cost_network.statistics 	repo_popularity[0] 	0.29357061690373
scalar abilene_cost_network.statistics 	repo_popularity[1] 	0.31455664157995
scalar abilene_cost_network.statistics 	repo_popularity[2] 	0.39187274151631
scalar abilene_cost_network.statistics 	stabilization_time 	1680.1
scalar abilene_cost_network.node[1].face$o[4].channel 	price[1] 	0
scalar abilene_cost_network.node[1].face$o[4].channel 	represented_price[1] 	0
scalar abilene_cost_network.node[7].face$o[4].channel 	price[7] 	0
scalar abilene_cost_network.node[7].face$o[4].channel 	represented_price[7] 	0
scalar abilene_cost_network.node[10].face$o[4].channel 	price[10] 	0
scalar abilene_cost_network.node[10].face$o[4].channel 	represented_price[10] 	0
scalar abilene_cost_network.node[11].face$o[1].channel 	price[11] 	0
scalar abilene_cost_network.node[11].face$o[1].channel 	represented_price[11] 	0
scalar abilene_cost_network.node[12].face$o[1].channel 	price[12] 	1
scalar abilene_cost_network.node[12].face$o[1].channel 	represented_price[12] 	1
scalar abilene_cost_network.node[13].face$o[1].channel 	price[13] 	10
scalar abilene_cost_network.node[13].face$o[1].channel 	represented_price[13] 	10
scalar abilene_cost_network.statistics 	p_hit 	0.097804382391035
scalar abilene_cost_network.statistics 	interests 	145374
scalar abilene_cost_network.statistics 	data 	106776
scalar abilene_cost_network.statistics 	hdistance 	3.4344159706851
scalar abilene_cost_network.statistics 	avg_time 	0.013985741595
scalar abilene_cost_network.statistics 	downloads 	533527
scalar abilene_cost_network.statistics 	total_cost 	939649
scalar abilene_cost_network.statistics 	total_replicas 	100000
scalar abilene_cost_network.statistics 	inner_hit 	0.37309452005241
scalar abilene_cost_network.statistics 	interests_sent 	540380
scalar abilene_cost_network.node[0].core_layer 	interests[0] 	180065
scalar abilene_cost_network.node[0].core_layer 	data[0] 	153916
scalar abilene_cost_network.node[0].core_layer 	repo_int[0] 	334471
scalar abilene_cost_network.node[0].content_store 	p_hit[0] 	0.14087690556188
scalar abilene_cost_network.node[0].content_store 	hits[0] 	25367
scalar abilene_cost_network.node[0].content_store 	misses[0] 	154698
scalar abilene_cost_network.node[0].content_store 	decision_yes[0] 	953
scalar abilene_cost_network.node[0].content_store 	decision_no[0] 	152963
scalar abilene_cost_network.node[0].content_store 	decision_ratio[0] 	0.0061916889732062
scalar abilene_cost_network.node[0].content_store 	correction_factor[0] 	0.0027225701061802
scalar abilene_cost_network.node[0].content_store 	xi[0] 	1
scalar abilene_cost_network.node[1].core_layer 	interests[1] 	267807
scalar abilene_cost_network.node[1].core_layer 	data[1] 	188480
scalar abilene_cost_network.node[1].content_store 	p_hit[1] 	0.29621331779976
scalar abilene_cost_network.node[1].content_store 	hits[1] 	79328
scalar abilene_cost_network.node[1].content_store 	misses[1] 	188479
scalar abilene_cost_network.node[1].content_store 	decision_yes[1] 	2292
scalar abilene_cost_network.node[1].content_store 	decision_no[1] 	186188
scalar abilene_cost_network.node[1].content_store 	decision_ratio[1] 	0.012160441426146
scalar abilene_cost_network.node[1].content_store 	correction_factor[1] 	0.0027225701061802
scalar abilene_cost_network.node[1].content_store 	xi[1] 	1
scalar abilene_cost_network.node[2].core_layer 	interests[2] 	161990
scalar abilene_cost_network.node[2].core_layer 	data[2] 	153320
scalar abilene_cost_network.node[2].content_store 	p_hit[2] 	0.053527995555281
scalar abilene_cost_network.node[2].content_store 	hits[2] 	8671
scalar abilene_cost_network.node[2].content_store 	misses[2] 	153319
scalar abilene_cost_network.node[2].content_store 	decision_yes[2] 	815
scalar abilene_cost_network.node[2].content_store 	decision_no[2] 	152505
scalar abilene_cost_network.node[2].content_store 	decision_ratio[2] 	0.0053156796243152
scalar abilene_cost_network.node[2].content_store 	correction_factor[2] 	0.0027225701061802
scalar abilene_cost_network.node[2].content_store 	xi[2] 	1
scalar abilene_cost_network.node[3].core_layer 	interests[3] 	159695
scalar abilene_cost_network.node[3].core_layer 	data[3] 	152907
scalar abilene_cost_network.node[3].content_store 	p_hit[3] 	0.042512289051003
scalar abilene_cost_network.node[3].content_store 	hits[3] 	6789
scalar abilene_cost_network.node[3].content_store 	misses[3] 	152906
scalar abilene_cost_network.node[3].content_store 	decision_yes[3] 	827
scalar abilene_cost_network.node[3].content_store 	decision_no[3] 	152080
scalar abilene_cost_network.node[3].content_store 	decision_ratio[3] 	0.0054085162876781
scalar abilene_cost_network.node[3].content_store 	correction_factor[3] 	0.0027225701061802
scalar abilene_cost_network.node[3].content_store 	xi[3] 	1
scalar abilene_cost_network.node[4].core_layer 	interests[4] 	117422
scalar abilene_cost_network.node[4].core_layer 	data[4] 	113652
scalar abilene_cost_network.node[4].content_store 	p_hit[4] 	0.032114935872324
scalar abilene_cost_network.node[4].content_store 	hits[4] 	3771
scalar abilene_cost_network.node[4].content_store 	misses[4] 	113651
scalar abilene_cost_network.node[4].content_store 	decision_yes[4] 	687
scalar abilene_cost_network.node[4].content_store 	decision_no[4] 	112965
scalar abilene_cost_network.node[4].content_store 	decision_ratio[4] 	0.0060447682398902
scalar abilene_cost_network.node[4].content_store 	correction_factor[4] 	0.0027225701061802
scalar abilene_cost_network.node[4].content_store 	xi[4] 	1
scalar abilene_cost_network.node[5].core_layer 	interests[5] 	179916
scalar abilene_cost_network.node[5].core_layer 	data[5] 	168442
scalar abilene_cost_network.node[5].content_store 	p_hit[5] 	0.042314191066942
scalar abilene_cost_network.node[5].content_store 	hits[5] 	7613
scalar abilene_cost_network.node[5].content_store 	misses[5] 	172303
scalar abilene_cost_network.node[5].content_store 	decision_yes[5] 	823
scalar abilene_cost_network.node[5].content_store 	decision_no[5] 	167619
scalar abilene_cost_network.node[5].content_store 	decision_ratio[5] 	0.0048859548093706
scalar abilene_cost_network.node[5].content_store 	correction_factor[5] 	0.0027225701061802
scalar abilene_cost_network.node[5].content_store 	xi[5] 	1
scalar abilene_cost_network.node[6].core_layer 	interests[6] 	51020
scalar abilene_cost_network.node[6].core_layer 	data[6] 	40258
scalar abilene_cost_network.node[6].content_store 	p_hit[6] 	0.2109564876519
scalar abilene_cost_network.node[6].content_store 	hits[6] 	10763
scalar abilene_cost_network.node[6].content_store 	misses[6] 	40257
scalar abilene_cost_network.node[6].content_store 	decision_yes[6] 	75
scalar abilene_cost_network.node[6].content_store 	decision_no[6] 	40183
scalar abilene_cost_network.node[6].content_store 	decision_ratio[6] 	0.0018629837547817
scalar abilene_cost_network.node[6].content_store 	correction_factor[6] 	0.0027225701061802
scalar abilene_cost_network.node[6].content_store 	xi[6] 	1
scalar abilene_cost_network.node[7].core_layer 	interests[7] 	127776
scalar abilene_cost_network.node[7].core_layer 	data[7] 	92439
scalar abilene_cost_network.node[7].content_store 	p_hit[7] 	0.27655428249437
scalar abilene_cost_network.node[7].content_store 	hits[7] 	35337
scalar abilene_cost_network.node[7].content_store 	misses[7] 	92439
scalar abilene_cost_network.node[7].content_store 	decision_yes[7] 	235
scalar abilene_cost_network.node[7].content_store 	decision_no[7] 	92204
scalar abilene_cost_network.node[7].content_store 	decision_ratio[7] 	0.0025422170296087
scalar abilene_cost_network.node[7].content_store 	correction_factor[7] 	0.0027225701061802
scalar abilene_cost_network.node[7].content_store 	xi[7] 	1
scalar abilene_cost_network.node[8].core_layer 	interests[8] 	53354
scalar abilene_cost_network.node[8].core_layer 	data[8] 	44748
scalar abilene_cost_network.node[8].content_store 	p_hit[8] 	0.16133748172583
scalar abilene_cost_network.node[8].content_store 	hits[8] 	8608
scalar abilene_cost_network.node[8].content_store 	misses[8] 	44746
scalar abilene_cost_network.node[8].content_store 	decision_yes[8] 	82
scalar abilene_cost_network.node[8].content_store 	decision_no[8] 	44666
scalar abilene_cost_network.node[8].content_store 	decision_ratio[8] 	0.0018324841333691
scalar abilene_cost_network.node[8].content_store 	correction_factor[8] 	0.0027225701061802
scalar abilene_cost_network.node[8].content_store 	xi[8] 	1
scalar abilene_cost_network.node[9].core_layer 	interests[9] 	180399
scalar abilene_cost_network.node[9].core_layer 	data[9] 	170100
scalar abilene_cost_network.node[9].content_store 	p_hit[9] 	0.044839494675691
scalar abilene_cost_network.node[9].content_store 	hits[9] 	8089
scalar abilene_cost_network.node[9].content_store 	misses[9] 	172310
scalar abilene_cost_network.node[9].content_store 	decision_yes[9] 	842
scalar abilene_cost_network.node[9].content_store 	decision_no[9] 	169258
scalar abilene_cost_network.node[9].content_store 	decision_ratio[9] 	0.0049500293944738
scalar abilene_cost_network.node[9].content_store 	correction_factor[9] 	0.0027225701061802
scalar abilene_cost_network.node[9].content_store 	xi[9] 	1
scalar abilene_cost_network.node[10].core_layer 	interests[10] 	221321
scalar abilene_cost_network.node[10].core_layer 	data[10] 	216602
scalar abilene_cost_network.node[10].content_store 	p_hit[10] 	0.021321971254422
scalar abilene_cost_network.node[10].content_store 	hits[10] 	4719
scalar abilene_cost_network.node[10].content_store 	misses[10] 	216602
scalar abilene_cost_network.node[10].content_store 	decision_yes[10] 	747
scalar abilene_cost_network.node[10].content_store 	decision_no[10] 	215855
scalar abilene_cost_network.node[10].content_store 	decision_ratio[10] 	0.0034487216184523
scalar abilene_cost_network.node[10].content_store 	correction_factor[10] 	0.0027225701061802
scalar abilene_cost_network.node[10].content_store 	xi[10] 	1
scalar abilene_cost_network.node[11].core_layer 	interests[11] 	157311
scalar abilene_cost_network.node[11].core_layer 	repo_load[11] 	157311
scalar abilene_cost_network.node[11].core_layer 	data[11] 	0
scalar abilene_cost_network.node[11].content_store 	p_hit[11] 	0
scalar abilene_cost_network.node[11].content_store 	hits[11] 	0
scalar abilene_cost_network.node[11].content_store 	misses[11] 	157311
scalar abilene_cost_network.node[11].content_store 	decision_yes[11] 	0
scalar abilene_cost_network.node[11].content_store 	decision_no[11] 	157311
scalar abilene_cost_network.node[11].content_store 	decision_ratio[11] 	0
scalar abilene_cost_network.node[12].core_layer 	interests[12] 	92439
scalar abilene_cost_network.node[12].core_layer 	repo_load[12] 	92439
scalar abilene_cost_network.node[12].core_layer 	data[12] 	0
scalar abilene_cost_network.node[12].content_store 	p_hit[12] 	0
scalar abilene_cost_network.node[12].content_store 	hits[12] 	0
scalar abilene_cost_network.node[12].content_store 	misses[12] 	92439
scalar abilene_cost_network.node[12].content_store 	decision_yes[12] 	0
scalar abilene_cost_network.node[12].content_store 	decision_no[12] 	92439
scalar abilene_cost_network.node[12].content_store 	decision_ratio[12] 	0
scalar abilene_cost_network.node[13].core_layer 	interests[13] 	84721
scalar abilene_cost_network.node[13].core_layer 	repo_load[13] 	84721
scalar abilene_cost_network.node[13].core_layer 	data[13] 	0
scalar abilene_cost_network.node[13].content_store 	p_hit[13] 	0
scalar abilene_cost_network.node[13].content_store 	hits[13] 	0
scalar abilene_cost_network.node[13].content_store 	misses[13] 	84721
scalar abilene_cost_network.node[13].content_store 	decision_yes[13] 	0
scalar abilene_cost_network.node[13].content_store 	decision_no[13] 	84721
scalar abilene_cost_network.node[13].content_store 	decision_ratio[13] 	0
scalar abilene_cost_network.client[0] 	hdistance[0] 	2.91934539248
scalar abilene_cost_network.client[0] 	downloads[0] 	179283
scalar abilene_cost_network.client[0] 	avg_time[0] 	0.012470638133
scalar abilene_cost_network.client[0] 	interests_sent[0] 	180065
scalar abilene_cost_network.client[5] 	hdistance[5] 	4.584913805345
scalar abilene_cost_network.client[5] 	downloads[5] 	176055
scalar abilene_cost_network.client[5] 	avg_time[5] 	0.017703364538
scalar abilene_cost_network.client[5] 	interests_sent[5] 	179916
scalar abilene_cost_network.client[9] 	hdistance[9] 	2.7989887142304
scalar abilene_cost_network.client[9] 	downloads[9] 	178189
scalar abilene_cost_network.client[9] 	avg_time[9] 	0.011783222115
scalar abilene_cost_network.client[9] 	interests_sent[9] 	180399
