version 2
run General-597-20140502-11:19:13-14656
attr D fix0.001
attr F nrr
attr R lru
attr a 1
attr configname General
attr csize 1e3
attr ctlg 1e5
attr datetime 20140502-11:19:13
attr experiment General
attr inifile omnetpp.ini
attr iterationvars "$net=three_caches_scenario_3_links, $rep=5, $priceratiovalue=1, $weights=0.333_0.333_0.334, $a=1, $ctlg=1e5, $F=nrr, $ttl=1000, $D=fix0.001, $xi=1, $R=lru, $csize=1e3"
attr iterationvars2 "$net=three_caches_scenario_3_links, $rep=5, $priceratiovalue=1, $weights=0.333_0.333_0.334, $a=1, $ctlg=1e5, $F=nrr, $ttl=1000, $D=fix0.001, $xi=1, $R=lru, $csize=1e3, $repetition=0"
attr measurement "$net=three_caches_scenario_3_links, $rep=5, $priceratiovalue=1, $weights=0.333_0.333_0.334, $a=1, $ctlg=1e5, $F=nrr, $ttl=1000, $D=fix0.001, $xi=1, $R=lru, $csize=1e3"
attr net three_caches_scenario_3_links
attr network networks.${net=three_caches_scenario_3_links}_network
attr priceratiovalue 1
attr processid 14656
attr rep 5
attr repetition 0
attr replication #0
attr resultdir results
attr runnumber 597
attr seedset 5
attr ttl 1000
attr weights 0.333_0.333_0.334
attr xi 1

scalar . 	a 	1
scalar . 	csize 	1e3
scalar . 	ctlg 	1e5
scalar . 	priceratiovalue 	1
scalar . 	rep 	5
scalar . 	ttl 	1000
scalar . 	xi 	1
scalar three_caches_scenario_3_links_network.content_distribution 	repo-0 	4
scalar three_caches_scenario_3_links_network.content_distribution 	repo-1 	5
scalar three_caches_scenario_3_links_network.content_distribution 	repo-2 	6
scalar three_caches_scenario_3_links_network.content_distribution 	client-0 	0
scalar three_caches_scenario_3_links_network.content_distribution 	repo-0_card 	33274
scalar three_caches_scenario_3_links_network.content_distribution 	repo-1_card 	33323
scalar three_caches_scenario_3_links_network.content_distribution 	repo-2_card 	33403
scalar three_caches_scenario_3_links_network.statistics 	p_hit 	0.27383847180438
scalar three_caches_scenario_3_links_network.statistics 	interests 	50524.571428571
scalar three_caches_scenario_3_links_network.statistics 	data 	24754.857142857
scalar three_caches_scenario_3_links_network.statistics 	hdistance 	1.2572953855024
scalar three_caches_scenario_3_links_network.statistics 	avg_time 	0
scalar three_caches_scenario_3_links_network.statistics 	downloads 	180388
scalar three_caches_scenario_3_links_network.statistics 	total_cost 	53517
scalar three_caches_scenario_3_links_network.statistics 	total_replicas 	100000
scalar three_caches_scenario_3_links_network.statistics 	interests_sent 	180388
scalar three_caches_scenario_3_links_network.node[0].core_layer 	interests[0] 	180388
scalar three_caches_scenario_3_links_network.node[0].core_layer 	data[0] 	89745
scalar three_caches_scenario_3_links_network.node[0].core_layer 	repo_int[0] 	83539
scalar three_caches_scenario_3_links_network.node[0].content_store 	p_hit[0] 	0.50248907909617
scalar three_caches_scenario_3_links_network.node[0].content_store 	hits[0] 	90643
scalar three_caches_scenario_3_links_network.node[0].content_store 	misses[0] 	89745
scalar three_caches_scenario_3_links_network.node[0].content_store 	decision_yes[0] 	99
scalar three_caches_scenario_3_links_network.node[0].content_store 	decision_no[0] 	89646
scalar three_caches_scenario_3_links_network.node[1].core_layer 	interests[1] 	30022
scalar three_caches_scenario_3_links_network.node[1].core_layer 	data[1] 	30022
scalar three_caches_scenario_3_links_network.node[1].content_store 	p_hit[1] 	0
scalar three_caches_scenario_3_links_network.node[1].content_store 	hits[1] 	0
scalar three_caches_scenario_3_links_network.node[1].content_store 	misses[1] 	30022
scalar three_caches_scenario_3_links_network.node[1].content_store 	decision_yes[1] 	0
scalar three_caches_scenario_3_links_network.node[1].content_store 	decision_no[1] 	30022
scalar three_caches_scenario_3_links_network.node[2].core_layer 	interests[2] 	30026
scalar three_caches_scenario_3_links_network.node[2].core_layer 	data[2] 	26753
scalar three_caches_scenario_3_links_network.node[2].content_store 	p_hit[2] 	0.10900552854193
scalar three_caches_scenario_3_links_network.node[2].content_store 	hits[2] 	3273
scalar three_caches_scenario_3_links_network.node[2].content_store 	misses[2] 	26753
scalar three_caches_scenario_3_links_network.node[2].content_store 	decision_yes[2] 	24
scalar three_caches_scenario_3_links_network.node[2].content_store 	decision_no[2] 	26729
scalar three_caches_scenario_3_links_network.node[3].core_layer 	interests[3] 	29697
scalar three_caches_scenario_3_links_network.node[3].core_layer 	data[3] 	26764
scalar three_caches_scenario_3_links_network.node[3].content_store 	p_hit[3] 	0.098764184934505
scalar three_caches_scenario_3_links_network.node[3].content_store 	hits[3] 	2933
scalar three_caches_scenario_3_links_network.node[3].content_store 	misses[3] 	26764
scalar three_caches_scenario_3_links_network.node[3].content_store 	decision_yes[3] 	26
scalar three_caches_scenario_3_links_network.node[3].content_store 	decision_no[3] 	26738
scalar three_caches_scenario_3_links_network.node[4].core_layer 	interests[4] 	30022
scalar three_caches_scenario_3_links_network.node[4].core_layer 	repo_load[4] 	30022
scalar three_caches_scenario_3_links_network.node[4].core_layer 	data[4] 	0
scalar three_caches_scenario_3_links_network.node[4].content_store 	p_hit[4] 	0
scalar three_caches_scenario_3_links_network.node[4].content_store 	hits[4] 	0
scalar three_caches_scenario_3_links_network.node[4].content_store 	misses[4] 	30022
scalar three_caches_scenario_3_links_network.node[4].content_store 	decision_yes[4] 	0
scalar three_caches_scenario_3_links_network.node[4].content_store 	decision_no[4] 	30022
scalar three_caches_scenario_3_links_network.node[5].core_layer 	interests[5] 	26753
scalar three_caches_scenario_3_links_network.node[5].core_layer 	repo_load[5] 	26753
scalar three_caches_scenario_3_links_network.node[5].core_layer 	data[5] 	0
scalar three_caches_scenario_3_links_network.node[5].content_store 	p_hit[5] 	0
scalar three_caches_scenario_3_links_network.node[5].content_store 	hits[5] 	0
scalar three_caches_scenario_3_links_network.node[5].content_store 	misses[5] 	26753
scalar three_caches_scenario_3_links_network.node[5].content_store 	decision_yes[5] 	0
scalar three_caches_scenario_3_links_network.node[5].content_store 	decision_no[5] 	26753
scalar three_caches_scenario_3_links_network.node[6].core_layer 	interests[6] 	26764
scalar three_caches_scenario_3_links_network.node[6].core_layer 	repo_load[6] 	26764
scalar three_caches_scenario_3_links_network.node[6].core_layer 	data[6] 	0
scalar three_caches_scenario_3_links_network.node[6].content_store 	p_hit[6] 	0
scalar three_caches_scenario_3_links_network.node[6].content_store 	hits[6] 	0
scalar three_caches_scenario_3_links_network.node[6].content_store 	misses[6] 	26764
scalar three_caches_scenario_3_links_network.node[6].content_store 	decision_yes[6] 	0
scalar three_caches_scenario_3_links_network.node[6].content_store 	decision_no[6] 	26764
scalar three_caches_scenario_3_links_network.client[0] 	hdistance[0] 	1.2572953855024
scalar three_caches_scenario_3_links_network.client[0] 	downloads[0] 	180388
scalar three_caches_scenario_3_links_network.client[0] 	avg_time[0] 	0
scalar three_caches_scenario_3_links_network.client[0] 	interests_sent[0] 	180388
