version 2
run General-309-20140502-12:07:41-15629
attr D fix0.001
attr F nrr
attr R lru
attr a 1
attr configname General
attr csize 1e3
attr ctlg 1e5
attr datetime 20140502-12:07:41
attr experiment General
attr inifile omnetpp.ini
attr iterationvars "$net=three_caches_scenario_3_links, $rep=3, $priceratiovalue=1, $weights=0.333_0.333_0.334, $a=1, $ctlg=1e5, $F=nrr, $ttl=1000, $D=fix0.001, $xi=1, $R=lru, $csize=1e3"
attr iterationvars2 "$net=three_caches_scenario_3_links, $rep=3, $priceratiovalue=1, $weights=0.333_0.333_0.334, $a=1, $ctlg=1e5, $F=nrr, $ttl=1000, $D=fix0.001, $xi=1, $R=lru, $csize=1e3, $repetition=0"
attr measurement "$net=three_caches_scenario_3_links, $rep=3, $priceratiovalue=1, $weights=0.333_0.333_0.334, $a=1, $ctlg=1e5, $F=nrr, $ttl=1000, $D=fix0.001, $xi=1, $R=lru, $csize=1e3"
attr net three_caches_scenario_3_links
attr network networks.${net=three_caches_scenario_3_links}_network
attr priceratiovalue 1
attr processid 15629
attr rep 3
attr repetition 0
attr replication #0
attr resultdir results
attr runnumber 309
attr seedset 3
attr ttl 1000
attr weights 0.333_0.333_0.334
attr xi 1

scalar . 	a 	1
scalar . 	csize 	1e3
scalar . 	ctlg 	1e5
scalar . 	priceratiovalue 	1
scalar . 	rep 	3
scalar . 	ttl 	1000
scalar . 	xi 	1
scalar three_caches_scenario_3_links_network.content_distribution 	repo-0 	4
scalar three_caches_scenario_3_links_network.content_distribution 	repo-1 	5
scalar three_caches_scenario_3_links_network.content_distribution 	repo-2 	6
scalar three_caches_scenario_3_links_network.content_distribution 	client-0 	0
scalar three_caches_scenario_3_links_network.content_distribution 	repo-0_card 	33329
scalar three_caches_scenario_3_links_network.content_distribution 	repo-1_card 	33051
scalar three_caches_scenario_3_links_network.content_distribution 	repo-2_card 	33620
scalar three_caches_scenario_3_links_network.statistics 	p_hit 	0.27308588948387
scalar three_caches_scenario_3_links_network.statistics 	interests 	50555
scalar three_caches_scenario_3_links_network.statistics 	data 	24845
scalar three_caches_scenario_3_links_network.statistics 	hdistance 	1.2639495471467
scalar three_caches_scenario_3_links_network.statistics 	avg_time 	0
scalar three_caches_scenario_3_links_network.statistics 	downloads 	179970
scalar three_caches_scenario_3_links_network.statistics 	total_cost 	53558
scalar three_caches_scenario_3_links_network.statistics 	total_replicas 	100000
scalar three_caches_scenario_3_links_network.statistics 	interests_sent 	179970
scalar three_caches_scenario_3_links_network.node[0].core_layer 	interests[0] 	179970
scalar three_caches_scenario_3_links_network.node[0].core_layer 	data[0] 	90586
scalar three_caches_scenario_3_links_network.node[0].core_layer 	repo_int[0] 	83329
scalar three_caches_scenario_3_links_network.node[0].content_store 	p_hit[0] 	0.49666055453687
scalar three_caches_scenario_3_links_network.node[0].content_store 	hits[0] 	89384
scalar three_caches_scenario_3_links_network.node[0].content_store 	misses[0] 	90586
scalar three_caches_scenario_3_links_network.node[0].content_store 	decision_yes[0] 	104
scalar three_caches_scenario_3_links_network.node[0].content_store 	decision_no[0] 	90482
scalar three_caches_scenario_3_links_network.node[1].core_layer 	interests[1] 	29771
scalar three_caches_scenario_3_links_network.node[1].core_layer 	data[1] 	29771
scalar three_caches_scenario_3_links_network.node[1].content_store 	p_hit[1] 	0
scalar three_caches_scenario_3_links_network.node[1].content_store 	hits[1] 	0
scalar three_caches_scenario_3_links_network.node[1].content_store 	misses[1] 	29771
scalar three_caches_scenario_3_links_network.node[1].content_store 	decision_yes[1] 	0
scalar three_caches_scenario_3_links_network.node[1].content_store 	decision_no[1] 	29771
scalar three_caches_scenario_3_links_network.node[2].core_layer 	interests[2] 	31215
scalar three_caches_scenario_3_links_network.node[2].core_layer 	data[2] 	26571
scalar three_caches_scenario_3_links_network.node[2].content_store 	p_hit[2] 	0.14877462758289
scalar three_caches_scenario_3_links_network.node[2].content_store 	hits[2] 	4644
scalar three_caches_scenario_3_links_network.node[2].content_store 	misses[2] 	26571
scalar three_caches_scenario_3_links_network.node[2].content_store 	decision_yes[2] 	18
scalar three_caches_scenario_3_links_network.node[2].content_store 	decision_no[2] 	26553
scalar three_caches_scenario_3_links_network.node[3].core_layer 	interests[3] 	29600
scalar three_caches_scenario_3_links_network.node[3].core_layer 	data[3] 	26987
scalar three_caches_scenario_3_links_network.node[3].content_store 	p_hit[3] 	0.088277027027027
scalar three_caches_scenario_3_links_network.node[3].content_store 	hits[3] 	2613
scalar three_caches_scenario_3_links_network.node[3].content_store 	misses[3] 	26987
scalar three_caches_scenario_3_links_network.node[3].content_store 	decision_yes[3] 	36
scalar three_caches_scenario_3_links_network.node[3].content_store 	decision_no[3] 	26951
scalar three_caches_scenario_3_links_network.node[4].core_layer 	interests[4] 	29771
scalar three_caches_scenario_3_links_network.node[4].core_layer 	repo_load[4] 	29771
scalar three_caches_scenario_3_links_network.node[4].core_layer 	data[4] 	0
scalar three_caches_scenario_3_links_network.node[4].content_store 	p_hit[4] 	0
scalar three_caches_scenario_3_links_network.node[4].content_store 	hits[4] 	0
scalar three_caches_scenario_3_links_network.node[4].content_store 	misses[4] 	29771
scalar three_caches_scenario_3_links_network.node[4].content_store 	decision_yes[4] 	0
scalar three_caches_scenario_3_links_network.node[4].content_store 	decision_no[4] 	29771
scalar three_caches_scenario_3_links_network.node[5].core_layer 	interests[5] 	26571
scalar three_caches_scenario_3_links_network.node[5].core_layer 	repo_load[5] 	26571
scalar three_caches_scenario_3_links_network.node[5].core_layer 	data[5] 	0
scalar three_caches_scenario_3_links_network.node[5].content_store 	p_hit[5] 	0
scalar three_caches_scenario_3_links_network.node[5].content_store 	hits[5] 	0
scalar three_caches_scenario_3_links_network.node[5].content_store 	misses[5] 	26571
scalar three_caches_scenario_3_links_network.node[5].content_store 	decision_yes[5] 	0
scalar three_caches_scenario_3_links_network.node[5].content_store 	decision_no[5] 	26571
scalar three_caches_scenario_3_links_network.node[6].core_layer 	interests[6] 	26987
scalar three_caches_scenario_3_links_network.node[6].core_layer 	repo_load[6] 	26987
scalar three_caches_scenario_3_links_network.node[6].core_layer 	data[6] 	0
scalar three_caches_scenario_3_links_network.node[6].content_store 	p_hit[6] 	0
scalar three_caches_scenario_3_links_network.node[6].content_store 	hits[6] 	0
scalar three_caches_scenario_3_links_network.node[6].content_store 	misses[6] 	26987
scalar three_caches_scenario_3_links_network.node[6].content_store 	decision_yes[6] 	0
scalar three_caches_scenario_3_links_network.node[6].content_store 	decision_no[6] 	26987
scalar three_caches_scenario_3_links_network.client[0] 	hdistance[0] 	1.2639495471467
scalar three_caches_scenario_3_links_network.client[0] 	downloads[0] 	179970
scalar three_caches_scenario_3_links_network.client[0] 	avg_time[0] 	0
scalar three_caches_scenario_3_links_network.client[0] 	interests_sent[0] 	179970
