version 2
run General-1565-20140502-04:04:10-10486
attr D fix0.01
attr F nrr
attr R lru
attr a 1
attr configname General
attr csize 1e3
attr ctlg 1e5
attr datetime 20140502-04:04:10
attr experiment General
attr inifile omnetpp.ini
attr iterationvars "$net=three_caches_scenario_3_links, $rep=3, $priceratiovalue=5, $weights=0_0.5_0.5, $a=1, $ctlg=1e5, $F=nrr, $ttl=1000, $D=fix0.01, $xi=1, $R=lru, $csize=1e3"
attr iterationvars2 "$net=three_caches_scenario_3_links, $rep=3, $priceratiovalue=5, $weights=0_0.5_0.5, $a=1, $ctlg=1e5, $F=nrr, $ttl=1000, $D=fix0.01, $xi=1, $R=lru, $csize=1e3, $repetition=0"
attr measurement "$net=three_caches_scenario_3_links, $rep=3, $priceratiovalue=5, $weights=0_0.5_0.5, $a=1, $ctlg=1e5, $F=nrr, $ttl=1000, $D=fix0.01, $xi=1, $R=lru, $csize=1e3"
attr net three_caches_scenario_3_links
attr network networks.${net=three_caches_scenario_3_links}_network
attr priceratiovalue 5
attr processid 10486
attr rep 3
attr repetition 0
attr replication #0
attr resultdir results
attr runnumber 1565
attr seedset 3
attr ttl 1000
attr weights 0_0.5_0.5
attr xi 1

scalar . 	a 	1
scalar . 	csize 	1e3
scalar . 	ctlg 	1e5
scalar . 	priceratiovalue 	5
scalar . 	rep 	3
scalar . 	ttl 	1000
scalar . 	xi 	1
scalar three_caches_scenario_3_links_network.content_distribution 	repo-0 	4
scalar three_caches_scenario_3_links_network.content_distribution 	repo-1 	5
scalar three_caches_scenario_3_links_network.content_distribution 	repo-2 	6
scalar three_caches_scenario_3_links_network.content_distribution 	client-0 	0
scalar three_caches_scenario_3_links_network.content_distribution 	repo-0_card 	0
scalar three_caches_scenario_3_links_network.content_distribution 	repo-1_card 	49794
scalar three_caches_scenario_3_links_network.content_distribution 	repo-2_card 	50206
scalar three_caches_scenario_3_links_network.statistics 	p_hit 	0.27916883381199
scalar three_caches_scenario_3_links_network.statistics 	interests 	50538.285714286
scalar three_caches_scenario_3_links_network.statistics 	data 	24802.285714286
scalar three_caches_scenario_3_links_network.statistics 	hdistance 	1.4155102358009
scalar three_caches_scenario_3_links_network.statistics 	avg_time 	0
scalar three_caches_scenario_3_links_network.statistics 	downloads 	180152
scalar three_caches_scenario_3_links_network.statistics 	total_cost 	244443
scalar three_caches_scenario_3_links_network.statistics 	total_replicas 	100000
scalar three_caches_scenario_3_links_network.statistics 	interests_sent 	180152
scalar three_caches_scenario_3_links_network.node[0].core_layer 	interests[0] 	180152
scalar three_caches_scenario_3_links_network.node[0].core_layer 	data[0] 	92225
scalar three_caches_scenario_3_links_network.node[0].core_layer 	repo_int[0] 	81391
scalar three_caches_scenario_3_links_network.node[0].content_store 	p_hit[0] 	0.48807118433323
scalar three_caches_scenario_3_links_network.node[0].content_store 	hits[0] 	87927
scalar three_caches_scenario_3_links_network.node[0].content_store 	misses[0] 	92225
scalar three_caches_scenario_3_links_network.node[0].content_store 	decision_yes[0] 	898
scalar three_caches_scenario_3_links_network.node[0].content_store 	decision_no[0] 	91327
scalar three_caches_scenario_3_links_network.node[1].core_layer 	interests[1] 	0
scalar three_caches_scenario_3_links_network.node[1].core_layer 	data[1] 	0
scalar three_caches_scenario_3_links_network.node[1].content_store 	p_hit[1] 	-nan
scalar three_caches_scenario_3_links_network.node[1].content_store 	hits[1] 	0
scalar three_caches_scenario_3_links_network.node[1].content_store 	misses[1] 	0
scalar three_caches_scenario_3_links_network.node[1].content_store 	decision_yes[1] 	0
scalar three_caches_scenario_3_links_network.node[1].content_store 	decision_no[1] 	0
scalar three_caches_scenario_3_links_network.node[2].core_layer 	interests[2] 	46181
scalar three_caches_scenario_3_links_network.node[2].core_layer 	data[2] 	40628
scalar three_caches_scenario_3_links_network.node[2].content_store 	p_hit[2] 	0.12024425629588
scalar three_caches_scenario_3_links_network.node[2].content_store 	hits[2] 	5553
scalar three_caches_scenario_3_links_network.node[2].content_store 	misses[2] 	40628
scalar three_caches_scenario_3_links_network.node[2].content_store 	decision_yes[2] 	391
scalar three_caches_scenario_3_links_network.node[2].content_store 	decision_no[2] 	40237
scalar three_caches_scenario_3_links_network.node[3].core_layer 	interests[3] 	46044
scalar three_caches_scenario_3_links_network.node[3].core_layer 	data[3] 	40763
scalar three_caches_scenario_3_links_network.node[3].content_store 	p_hit[3] 	0.11469463990965
scalar three_caches_scenario_3_links_network.node[3].content_store 	hits[3] 	5281
scalar three_caches_scenario_3_links_network.node[3].content_store 	misses[3] 	40763
scalar three_caches_scenario_3_links_network.node[3].content_store 	decision_yes[3] 	394
scalar three_caches_scenario_3_links_network.node[3].content_store 	decision_no[3] 	40369
scalar three_caches_scenario_3_links_network.node[4].core_layer 	interests[4] 	0
scalar three_caches_scenario_3_links_network.node[4].core_layer 	data[4] 	0
scalar three_caches_scenario_3_links_network.node[4].content_store 	p_hit[4] 	-nan
scalar three_caches_scenario_3_links_network.node[4].content_store 	hits[4] 	0
scalar three_caches_scenario_3_links_network.node[4].content_store 	misses[4] 	0
scalar three_caches_scenario_3_links_network.node[4].content_store 	decision_yes[4] 	0
scalar three_caches_scenario_3_links_network.node[4].content_store 	decision_no[4] 	0
scalar three_caches_scenario_3_links_network.node[5].core_layer 	interests[5] 	40628
scalar three_caches_scenario_3_links_network.node[5].core_layer 	repo_load[5] 	40628
scalar three_caches_scenario_3_links_network.node[5].core_layer 	data[5] 	0
scalar three_caches_scenario_3_links_network.node[5].content_store 	p_hit[5] 	0
scalar three_caches_scenario_3_links_network.node[5].content_store 	hits[5] 	0
scalar three_caches_scenario_3_links_network.node[5].content_store 	misses[5] 	40628
scalar three_caches_scenario_3_links_network.node[5].content_store 	decision_yes[5] 	0
scalar three_caches_scenario_3_links_network.node[5].content_store 	decision_no[5] 	40628
scalar three_caches_scenario_3_links_network.node[6].core_layer 	interests[6] 	40763
scalar three_caches_scenario_3_links_network.node[6].core_layer 	repo_load[6] 	40763
scalar three_caches_scenario_3_links_network.node[6].core_layer 	data[6] 	0
scalar three_caches_scenario_3_links_network.node[6].content_store 	p_hit[6] 	0
scalar three_caches_scenario_3_links_network.node[6].content_store 	hits[6] 	0
scalar three_caches_scenario_3_links_network.node[6].content_store 	misses[6] 	40763
scalar three_caches_scenario_3_links_network.node[6].content_store 	decision_yes[6] 	0
scalar three_caches_scenario_3_links_network.node[6].content_store 	decision_no[6] 	40763
scalar three_caches_scenario_3_links_network.client[0] 	hdistance[0] 	1.4155102358009
scalar three_caches_scenario_3_links_network.client[0] 	downloads[0] 	180152
scalar three_caches_scenario_3_links_network.client[0] 	avg_time[0] 	0
scalar three_caches_scenario_3_links_network.client[0] 	interests_sent[0] 	180152
