version 2
run General-8-20150312-16:23:24-9444
attr D fix0.01
attr F nrr
attr R lru
attr a 1
attr configname General
attr csize 1e3
attr ctlg 1e5
attr datetime 20150312-16:23:24
attr experiment General
attr inifile omnetpp.ini
attr iterationvars "$rep=5, $net=simple, $lambda=100, $a=1, $ctlg=1e5, $F=nrr, $ttl=10, $D=fix0.01, $R=lru, $csize=1e3, $window=60, $variance=0.05, $mytime=1800, $kappa=1, $priceratiovalue=10, $splits=0.333_0.333_0.334, $pricebits=0"
attr iterationvars2 "$rep=5, $net=simple, $lambda=100, $a=1, $ctlg=1e5, $F=nrr, $ttl=10, $D=fix0.01, $R=lru, $csize=1e3, $window=60, $variance=0.05, $mytime=1800, $kappa=1, $priceratiovalue=10, $splits=0.333_0.333_0.334, $pricebits=0, $repetition=0"
attr kappa 1
attr lambda 100
attr measurement "$rep=5, $net=simple, $lambda=100, $a=1, $ctlg=1e5, $F=nrr, $ttl=10, $D=fix0.01, $R=lru, $csize=1e3, $window=60, $variance=0.05, $mytime=1800, $kappa=1, $priceratiovalue=10, $splits=0.333_0.333_0.334, $pricebits=0"
attr mytime 1800
attr net simple
attr network networks.${net=simple}_network
attr pricebits 0
attr priceratiovalue 10
attr processid 9444
attr rep 5
attr repetition 0
attr replication #0
attr resultdir results
attr runnumber 8
attr seedset 5
attr splits 0.333_0.333_0.334
attr ttl 10
attr variance 0.05
attr window 60

scalar . 	a 	1
scalar . 	csize 	1e3
scalar . 	ctlg 	1e5
scalar . 	kappa 	1
scalar . 	lambda 	100
scalar . 	mytime 	1800
scalar . 	pricebits 	0
scalar . 	priceratiovalue 	10
scalar . 	rep 	5
scalar . 	ttl 	10
scalar . 	variance 	0.05
scalar . 	window 	60
scalar simple_network.content_distribution 	repo-0 	1
scalar simple_network.content_distribution 	client-0 	0
scalar simple_network.content_distribution 	repo-0_card 	100000
scalar simple_network.content_distribution 	repo-0_price 	0
scalar simple_network.statistics 	stabilization_time 	174.2
scalar simple_network.statistics 	p_hit 	0.24140637640846
scalar simple_network.statistics 	interests 	145238.5
scalar simple_network.statistics 	data 	55088.5
scalar simple_network.statistics 	hdistance 	1.2221519689406
scalar simple_network.statistics 	avg_time 	0
scalar simple_network.statistics 	downloads 	180300
scalar simple_network.statistics 	total_cost 	0
scalar simple_network.statistics 	total_replicas 	100000
scalar simple_network.statistics 	inner_hit 	0.38892401552967
scalar simple_network.statistics 	interests_sent 	180300
scalar simple_network.node[0].core_layer 	interests[0] 	180300
scalar simple_network.node[0].core_layer 	data[0] 	110177
scalar simple_network.node[0].core_layer 	repo_int[0] 	110177
scalar simple_network.node[0].content_store 	p_hit[0] 	0.38892401552967
scalar simple_network.node[0].content_store 	hits[0] 	70123
scalar simple_network.node[0].content_store 	misses[0] 	110177
scalar simple_network.node[0].content_store 	decision_yes[0] 	1088
scalar simple_network.node[0].content_store 	decision_no[0] 	109089
scalar simple_network.node[0].content_store 	decision_ratio[0] 	0.009875019287147
scalar simple_network.node[1].core_layer 	interests[1] 	110177
scalar simple_network.node[1].core_layer 	repo_load[1] 	110177
scalar simple_network.node[1].core_layer 	data[1] 	0
scalar simple_network.node[1].content_store 	p_hit[1] 	0
scalar simple_network.node[1].content_store 	hits[1] 	0
scalar simple_network.node[1].content_store 	misses[1] 	110177
scalar simple_network.node[1].content_store 	decision_yes[1] 	0
scalar simple_network.node[1].content_store 	decision_no[1] 	110177
scalar simple_network.node[1].content_store 	decision_ratio[1] 	0
scalar simple_network.client[0] 	hdistance[0] 	1.2221519689406
scalar simple_network.client[0] 	downloads[0] 	180300
scalar simple_network.client[0] 	avg_time[0] 	0
scalar simple_network.client[0] 	interests_sent[0] 	180300
