version 2
run General-1688-20140422-20:14:40-28560
attr D prob_cache
attr F nrr
attr R lru
attr a 1.2
attr configname General
attr csize 10
attr ctlg 10^3
attr datetime 20140422-20:14:40
attr experiment General
attr inifile omnetpp.ini
attr iterationvars "$net=simple_scenario, $rep=15, $priceratiovalue=1, $a=1.2, $ctlg=10^3, $F=nrr, $ttl=1000, $D=prob_cache, $R=lru, $csize=10"
attr iterationvars2 "$net=simple_scenario, $rep=15, $priceratiovalue=1, $a=1.2, $ctlg=10^3, $F=nrr, $ttl=1000, $D=prob_cache, $R=lru, $csize=10, $repetition=0"
attr measurement "$net=simple_scenario, $rep=15, $priceratiovalue=1, $a=1.2, $ctlg=10^3, $F=nrr, $ttl=1000, $D=prob_cache, $R=lru, $csize=10"
attr net simple_scenario
attr network networks.${net=simple_scenario}_network
attr priceratiovalue 1
attr processid 28560
attr rep 15
attr repetition 0
attr replication #0
attr resultdir results
attr runnumber 1688
attr seedset 15
attr ttl 1000

scalar . 	a 	1.2
scalar . 	csize 	10
scalar . 	priceratiovalue 	1
scalar . 	rep 	15
scalar . 	ttl 	1000
scalar simple_scenario_network.content_distribution 	repo-0 	3
scalar simple_scenario_network.content_distribution 	repo-1 	4
scalar simple_scenario_network.content_distribution 	client-0 	0
scalar simple_scenario_network.content_distribution 	repo-0_card 	472
scalar simple_scenario_network.content_distribution 	repo-1_card 	528
scalar simple_scenario_network.statistics 	p_hit 	0.30758799377934
scalar simple_scenario_network.statistics 	interests 	69317.4
scalar simple_scenario_network.statistics 	data 	33245.8
scalar simple_scenario_network.statistics 	hdistance 	1.3305813992171
scalar simple_scenario_network.statistics 	avg_time 	0.001985323493
scalar simple_scenario_network.statistics 	downloads 	180358
scalar simple_scenario_network.statistics 	total_cost 	36876
scalar simple_scenario_network.node[0].core_layer 	interests[0] 	180358
scalar simple_scenario_network.node[0].core_layer 	data[0] 	92477
scalar simple_scenario_network.node[0].core_layer 	repo_int[0] 	73752
scalar simple_scenario_network.node[0].content_store 	p_hit[0] 	0.48725867441422
scalar simple_scenario_network.node[0].content_store 	hits[0] 	87881
scalar simple_scenario_network.node[0].content_store 	misses[0] 	92477
scalar simple_scenario_network.node[1].core_layer 	interests[1] 	39784
scalar simple_scenario_network.node[1].core_layer 	data[1] 	32018
scalar simple_scenario_network.node[1].content_store 	p_hit[1] 	0.19520410215162
scalar simple_scenario_network.node[1].content_store 	hits[1] 	7766
scalar simple_scenario_network.node[1].content_store 	misses[1] 	32018
scalar simple_scenario_network.node[2].core_layer 	interests[2] 	52693
scalar simple_scenario_network.node[2].core_layer 	data[2] 	41734
scalar simple_scenario_network.node[2].content_store 	p_hit[2] 	0.20797828933634
scalar simple_scenario_network.node[2].content_store 	hits[2] 	10959
scalar simple_scenario_network.node[2].content_store 	misses[2] 	41734
scalar simple_scenario_network.node[3].core_layer 	interests[3] 	32018
scalar simple_scenario_network.node[3].core_layer 	repo_load[3] 	32018
scalar simple_scenario_network.node[3].core_layer 	data[3] 	0
scalar simple_scenario_network.node[3].content_store 	p_hit[3] 	0
scalar simple_scenario_network.node[3].content_store 	hits[3] 	0
scalar simple_scenario_network.node[3].content_store 	misses[3] 	32018
scalar simple_scenario_network.node[4].core_layer 	interests[4] 	41734
scalar simple_scenario_network.node[4].core_layer 	repo_load[4] 	41734
scalar simple_scenario_network.node[4].core_layer 	data[4] 	0
scalar simple_scenario_network.node[4].content_store 	p_hit[4] 	0
scalar simple_scenario_network.node[4].content_store 	hits[4] 	0
scalar simple_scenario_network.node[4].content_store 	misses[4] 	41734
scalar simple_scenario_network.client[0] 	hdistance[0] 	1.3305813992171
scalar simple_scenario_network.client[0] 	downloads[0] 	180358
scalar simple_scenario_network.client[0] 	avg_time[0] 	0.001985323493
