version 2
run General-4-20140625-11:30:50-10600
attr D fix0.005
attr F nrr
attr R lru
attr a 1
attr configname General
attr csize 1e3
attr ctlg 1e5
attr datetime 20140625-11:30:50
attr experiment General
attr inifile omnetpp.ini
attr iterationvars "$net=geant_cost, $rep=1, $priceratiovalue=10, $weights=0.333_0.333_0.334, $lambda=100, $a=1, $ctlg=1e5, $F=nrr, $ttl=1000, $D=fix0.005, $xi=1, $R=lru, $csize=1e3, $pricebits=0, $mytime=1800"
attr iterationvars2 "$net=geant_cost, $rep=1, $priceratiovalue=10, $weights=0.333_0.333_0.334, $lambda=100, $a=1, $ctlg=1e5, $F=nrr, $ttl=1000, $D=fix0.005, $xi=1, $R=lru, $csize=1e3, $pricebits=0, $mytime=1800, $repetition=0"
attr lambda 100
attr measurement "$net=geant_cost, $rep=1, $priceratiovalue=10, $weights=0.333_0.333_0.334, $lambda=100, $a=1, $ctlg=1e5, $F=nrr, $ttl=1000, $D=fix0.005, $xi=1, $R=lru, $csize=1e3, $pricebits=0, $mytime=1800"
attr mytime 1800
attr net geant_cost
attr network networks.${net=geant_cost}_network
attr pricebits 0
attr priceratiovalue 10
attr processid 10600
attr rep 1
attr repetition 0
attr replication #0
attr resultdir results
attr runnumber 4
attr seedset 1
attr ttl 1000
attr weights 0.333_0.333_0.334
attr xi 1

scalar . 	a 	1
scalar . 	csize 	1e3
scalar . 	ctlg 	1e5
scalar . 	lambda 	100
scalar . 	mytime 	1800
scalar . 	pricebits 	0
scalar . 	priceratiovalue 	10
scalar . 	rep 	1
scalar . 	ttl 	1000
scalar . 	xi 	1
scalar geant_cost_network.content_distribution 	repo-0 	22
scalar geant_cost_network.content_distribution 	repo-1 	23
scalar geant_cost_network.content_distribution 	repo-2 	24
scalar geant_cost_network.content_distribution 	client-0 	20
scalar geant_cost_network.content_distribution 	client-1 	10
scalar geant_cost_network.content_distribution 	client-2 	12
scalar geant_cost_network.content_distribution 	client-3 	9
scalar geant_cost_network.content_distribution 	client-4 	5
scalar geant_cost_network.content_distribution 	repo-0_card 	33396
scalar geant_cost_network.content_distribution 	repo-1_card 	33039
scalar geant_cost_network.content_distribution 	repo-2_card 	33565
scalar geant_cost_network.statistics 	repo_popularity[0] 	0.28686251265602
scalar geant_cost_network.statistics 	repo_popularity[1] 	0.2886063426465
scalar geant_cost_network.statistics 	repo_popularity[2] 	0.42453114469748
scalar geant_cost_network.statistics 	stabilization_time 	36060
scalar geant_cost_network.node[7].face$o[4].channel 	price[7] 	0
scalar geant_cost_network.node[7].face$o[4].channel 	represented_price[7] 	0
scalar geant_cost_network.node[8].face$o[3].channel 	price[8] 	0
scalar geant_cost_network.node[8].face$o[3].channel 	represented_price[8] 	0
scalar geant_cost_network.node[21].face$o[5].channel 	price[21] 	0
scalar geant_cost_network.node[21].face$o[5].channel 	represented_price[21] 	0
scalar geant_cost_network.node[22].face$o[1].channel 	price[22] 	0
scalar geant_cost_network.node[22].face$o[1].channel 	represented_price[22] 	0
scalar geant_cost_network.node[23].face$o[1].channel 	price[23] 	1
scalar geant_cost_network.node[23].face$o[1].channel 	represented_price[23] 	1
scalar geant_cost_network.node[24].face$o[1].channel 	price[24] 	10
scalar geant_cost_network.node[24].face$o[1].channel 	represented_price[24] 	10
scalar geant_cost_network.statistics 	p_hit 	0.1632621413424
scalar geant_cost_network.statistics 	interests 	113494.04
scalar geant_cost_network.statistics 	data 	77480.76
scalar geant_cost_network.statistics 	hdistance 	2.637531002909
scalar geant_cost_network.statistics 	avg_time 	0.005978254116
scalar geant_cost_network.statistics 	downloads 	900094
scalar geant_cost_network.statistics 	total_cost 	1605960
scalar geant_cost_network.statistics 	total_replicas 	100000
scalar geant_cost_network.statistics 	inner_hit 	0.5149751026004
scalar geant_cost_network.statistics 	interests_sent 	900331
scalar geant_cost_network.node[0].core_layer 	interests[0] 	0
scalar geant_cost_network.node[0].core_layer 	data[0] 	0
scalar geant_cost_network.node[0].core_layer 	repo_int[0] 	436568
scalar geant_cost_network.node[0].content_store 	p_hit[0] 	-nan
scalar geant_cost_network.node[0].content_store 	hits[0] 	0
scalar geant_cost_network.node[0].content_store 	misses[0] 	0
scalar geant_cost_network.node[0].content_store 	decision_yes[0] 	0
scalar geant_cost_network.node[0].content_store 	decision_no[0] 	0
scalar geant_cost_network.node[0].content_store 	decision_ratio[0] 	0
scalar geant_cost_network.node[1].core_layer 	interests[1] 	0
scalar geant_cost_network.node[1].core_layer 	data[1] 	0
scalar geant_cost_network.node[1].content_store 	p_hit[1] 	-nan
scalar geant_cost_network.node[1].content_store 	hits[1] 	0
scalar geant_cost_network.node[1].content_store 	misses[1] 	0
scalar geant_cost_network.node[1].content_store 	decision_yes[1] 	0
scalar geant_cost_network.node[1].content_store 	decision_no[1] 	0
scalar geant_cost_network.node[1].content_store 	decision_ratio[1] 	0
scalar geant_cost_network.node[2].core_layer 	interests[2] 	0
scalar geant_cost_network.node[2].core_layer 	data[2] 	0
scalar geant_cost_network.node[2].content_store 	p_hit[2] 	-nan
scalar geant_cost_network.node[2].content_store 	hits[2] 	0
scalar geant_cost_network.node[2].content_store 	misses[2] 	0
scalar geant_cost_network.node[2].content_store 	decision_yes[2] 	0
scalar geant_cost_network.node[2].content_store 	decision_no[2] 	0
scalar geant_cost_network.node[2].content_store 	decision_ratio[2] 	0
scalar geant_cost_network.node[3].core_layer 	interests[3] 	167080
scalar geant_cost_network.node[3].core_layer 	data[3] 	140473
scalar geant_cost_network.node[3].content_store 	p_hit[3] 	0.15922911180273
scalar geant_cost_network.node[3].content_store 	hits[3] 	26604
scalar geant_cost_network.node[3].content_store 	misses[3] 	140476
scalar geant_cost_network.node[3].content_store 	decision_yes[3] 	701
scalar geant_cost_network.node[3].content_store 	decision_no[3] 	139772
scalar geant_cost_network.node[3].content_store 	decision_ratio[3] 	0.0049902828301524
scalar geant_cost_network.node[4].core_layer 	interests[4] 	201716
scalar geant_cost_network.node[4].core_layer 	data[4] 	191608
scalar geant_cost_network.node[4].content_store 	p_hit[4] 	0.050100140792005
scalar geant_cost_network.node[4].content_store 	hits[4] 	10106
scalar geant_cost_network.node[4].content_store 	misses[4] 	191610
scalar geant_cost_network.node[4].content_store 	decision_yes[4] 	1003
scalar geant_cost_network.node[4].content_store 	decision_no[4] 	190605
scalar geant_cost_network.node[4].content_store 	decision_ratio[4] 	0.0052346457350424
scalar geant_cost_network.node[5].core_layer 	interests[5] 	186615
scalar geant_cost_network.node[5].core_layer 	data[5] 	123009
scalar geant_cost_network.node[5].content_store 	p_hit[5] 	0.34059427162875
scalar geant_cost_network.node[5].content_store 	hits[5] 	63560
scalar geant_cost_network.node[5].content_store 	misses[5] 	123055
scalar geant_cost_network.node[5].content_store 	decision_yes[5] 	652
scalar geant_cost_network.node[5].content_store 	decision_no[5] 	122357
scalar geant_cost_network.node[5].content_store 	decision_ratio[5] 	0.0053004251721419
scalar geant_cost_network.node[6].core_layer 	interests[6] 	69079
scalar geant_cost_network.node[6].core_layer 	data[6] 	61039
scalar geant_cost_network.node[6].content_store 	p_hit[6] 	0.11638848275163
scalar geant_cost_network.node[6].content_store 	hits[6] 	8040
scalar geant_cost_network.node[6].content_store 	misses[6] 	61039
scalar geant_cost_network.node[6].content_store 	decision_yes[6] 	304
scalar geant_cost_network.node[6].content_store 	decision_no[6] 	60735
scalar geant_cost_network.node[6].content_store 	decision_ratio[6] 	0.0049804223529219
scalar geant_cost_network.node[7].core_layer 	interests[7] 	220256
scalar geant_cost_network.node[7].core_layer 	data[7] 	210762
scalar geant_cost_network.node[7].content_store 	p_hit[7] 	0.04309984745024
scalar geant_cost_network.node[7].content_store 	hits[7] 	9493
scalar geant_cost_network.node[7].content_store 	misses[7] 	210763
scalar geant_cost_network.node[7].content_store 	decision_yes[7] 	1067
scalar geant_cost_network.node[7].content_store 	decision_no[7] 	209695
scalar geant_cost_network.node[7].content_store 	decision_ratio[7] 	0.0050625824389596
scalar geant_cost_network.node[8].core_layer 	interests[8] 	219032
scalar geant_cost_network.node[8].core_layer 	data[8] 	209597
scalar geant_cost_network.node[8].content_store 	p_hit[8] 	0.043075897585741
scalar geant_cost_network.node[8].content_store 	hits[8] 	9435
scalar geant_cost_network.node[8].content_store 	misses[8] 	209597
scalar geant_cost_network.node[8].content_store 	decision_yes[8] 	1061
scalar geant_cost_network.node[8].content_store 	decision_no[8] 	208536
scalar geant_cost_network.node[8].content_store 	decision_ratio[8] 	0.0050620953544182
scalar geant_cost_network.node[9].core_layer 	interests[9] 	341411
scalar geant_cost_network.node[9].core_layer 	data[9] 	267882
scalar geant_cost_network.node[9].content_store 	p_hit[9] 	0.21487591202392
scalar geant_cost_network.node[9].content_store 	hits[9] 	73361
scalar geant_cost_network.node[9].content_store 	misses[9] 	268050
scalar geant_cost_network.node[9].content_store 	decision_yes[9] 	1345
scalar geant_cost_network.node[9].content_store 	decision_no[9] 	266537
scalar geant_cost_network.node[9].content_store 	decision_ratio[9] 	0.0050208673968389
scalar geant_cost_network.node[10].core_layer 	interests[10] 	188927
scalar geant_cost_network.node[10].core_layer 	data[10] 	120189
scalar geant_cost_network.node[10].content_store 	p_hit[10] 	0.36352665315175
scalar geant_cost_network.node[10].content_store 	hits[10] 	68680
scalar geant_cost_network.node[10].content_store 	misses[10] 	120247
scalar geant_cost_network.node[10].content_store 	decision_yes[10] 	657
scalar geant_cost_network.node[10].content_store 	decision_no[10] 	119532
scalar geant_cost_network.node[10].content_store 	decision_ratio[10] 	0.0054663904350648
scalar geant_cost_network.node[11].core_layer 	interests[11] 	0
scalar geant_cost_network.node[11].core_layer 	data[11] 	0
scalar geant_cost_network.node[11].content_store 	p_hit[11] 	-nan
scalar geant_cost_network.node[11].content_store 	hits[11] 	0
scalar geant_cost_network.node[11].content_store 	misses[11] 	0
scalar geant_cost_network.node[11].content_store 	decision_yes[11] 	0
scalar geant_cost_network.node[11].content_store 	decision_no[11] 	0
scalar geant_cost_network.node[11].content_store 	decision_ratio[11] 	0
scalar geant_cost_network.node[12].core_layer 	interests[12] 	283779
scalar geant_cost_network.node[12].core_layer 	data[12] 	213852
scalar geant_cost_network.node[12].content_store 	p_hit[12] 	0.24567356992589
scalar geant_cost_network.node[12].content_store 	hits[12] 	69717
scalar geant_cost_network.node[12].content_store 	misses[12] 	214062
scalar geant_cost_network.node[12].content_store 	decision_yes[12] 	1088
scalar geant_cost_network.node[12].content_store 	decision_no[12] 	212764
scalar geant_cost_network.node[12].content_store 	decision_ratio[12] 	0.0050876306978658
scalar geant_cost_network.node[13].core_layer 	interests[13] 	29406
scalar geant_cost_network.node[13].core_layer 	data[13] 	7987
scalar geant_cost_network.node[13].content_store 	p_hit[13] 	0.72838876419778
scalar geant_cost_network.node[13].content_store 	hits[13] 	21419
scalar geant_cost_network.node[13].content_store 	misses[13] 	7987
scalar geant_cost_network.node[13].content_store 	decision_yes[13] 	29
scalar geant_cost_network.node[13].content_store 	decision_no[13] 	7958
scalar geant_cost_network.node[13].content_store 	decision_ratio[13] 	0.0036309002128459
scalar geant_cost_network.node[14].core_layer 	interests[14] 	63756
scalar geant_cost_network.node[14].core_layer 	data[14] 	43220
scalar geant_cost_network.node[14].content_store 	p_hit[14] 	0.32191480017567
scalar geant_cost_network.node[14].content_store 	hits[14] 	20524
scalar geant_cost_network.node[14].content_store 	misses[14] 	43232
scalar geant_cost_network.node[14].content_store 	decision_yes[14] 	220
scalar geant_cost_network.node[14].content_store 	decision_no[14] 	43000
scalar geant_cost_network.node[14].content_store 	decision_ratio[14] 	0.005090236001851
scalar geant_cost_network.node[15].core_layer 	interests[15] 	0
scalar geant_cost_network.node[15].core_layer 	data[15] 	0
scalar geant_cost_network.node[15].content_store 	p_hit[15] 	-nan
scalar geant_cost_network.node[15].content_store 	hits[15] 	0
scalar geant_cost_network.node[15].content_store 	misses[15] 	0
scalar geant_cost_network.node[15].content_store 	decision_yes[15] 	0
scalar geant_cost_network.node[15].content_store 	decision_no[15] 	0
scalar geant_cost_network.node[15].content_store 	decision_ratio[15] 	0
scalar geant_cost_network.node[16].core_layer 	interests[16] 	0
scalar geant_cost_network.node[16].core_layer 	data[16] 	0
scalar geant_cost_network.node[16].content_store 	p_hit[16] 	-nan
scalar geant_cost_network.node[16].content_store 	hits[16] 	0
scalar geant_cost_network.node[16].content_store 	misses[16] 	0
scalar geant_cost_network.node[16].content_store 	decision_yes[16] 	0
scalar geant_cost_network.node[16].content_store 	decision_no[16] 	0
scalar geant_cost_network.node[16].content_store 	decision_ratio[16] 	0
scalar geant_cost_network.node[17].core_layer 	interests[17] 	0
scalar geant_cost_network.node[17].core_layer 	data[17] 	0
scalar geant_cost_network.node[17].content_store 	p_hit[17] 	-nan
scalar geant_cost_network.node[17].content_store 	hits[17] 	0
scalar geant_cost_network.node[17].content_store 	misses[17] 	0
scalar geant_cost_network.node[17].content_store 	decision_yes[17] 	0
scalar geant_cost_network.node[17].content_store 	decision_no[17] 	0
scalar geant_cost_network.node[17].content_store 	decision_ratio[17] 	0
scalar geant_cost_network.node[18].core_layer 	interests[18] 	94303
scalar geant_cost_network.node[18].core_layer 	data[18] 	81582
scalar geant_cost_network.node[18].content_store 	p_hit[18] 	0.13489496622589
scalar geant_cost_network.node[18].content_store 	hits[18] 	12721
scalar geant_cost_network.node[18].content_store 	misses[18] 	81582
scalar geant_cost_network.node[18].content_store 	decision_yes[18] 	427
scalar geant_cost_network.node[18].content_store 	decision_no[18] 	81155
scalar geant_cost_network.node[18].content_store 	decision_ratio[18] 	0.0052339976955701
scalar geant_cost_network.node[19].core_layer 	interests[19] 	0
scalar geant_cost_network.node[19].core_layer 	data[19] 	0
scalar geant_cost_network.node[19].content_store 	p_hit[19] 	-nan
scalar geant_cost_network.node[19].content_store 	hits[19] 	0
scalar geant_cost_network.node[19].content_store 	misses[19] 	0
scalar geant_cost_network.node[19].content_store 	decision_yes[19] 	0
scalar geant_cost_network.node[19].content_store 	decision_no[19] 	0
scalar geant_cost_network.node[19].content_store 	decision_ratio[19] 	0
scalar geant_cost_network.node[20].core_layer 	interests[20] 	182011
scalar geant_cost_network.node[20].core_layer 	data[20] 	119506
scalar geant_cost_network.node[20].content_store 	p_hit[20] 	0.34323749663482
scalar geant_cost_network.node[20].content_store 	hits[20] 	62473
scalar geant_cost_network.node[20].content_store 	misses[20] 	119538
scalar geant_cost_network.node[20].content_store 	decision_yes[20] 	628
scalar geant_cost_network.node[20].content_store 	decision_no[20] 	118878
scalar geant_cost_network.node[20].content_store 	decision_ratio[20] 	0.0052549662778438
scalar geant_cost_network.node[21].core_layer 	interests[21] 	153412
scalar geant_cost_network.node[21].core_layer 	data[21] 	146313
scalar geant_cost_network.node[21].content_store 	p_hit[21] 	0.046274085469194
scalar geant_cost_network.node[21].content_store 	hits[21] 	7099
scalar geant_cost_network.node[21].content_store 	misses[21] 	146313
scalar geant_cost_network.node[21].content_store 	decision_yes[21] 	698
scalar geant_cost_network.node[21].content_store 	decision_no[21] 	145615
scalar geant_cost_network.node[21].content_store 	decision_ratio[21] 	0.0047705945473061
scalar geant_cost_network.node[22].core_layer 	interests[22] 	147425
scalar geant_cost_network.node[22].core_layer 	repo_load[22] 	147425
scalar geant_cost_network.node[22].core_layer 	data[22] 	0
scalar geant_cost_network.node[22].content_store 	p_hit[22] 	0
scalar geant_cost_network.node[22].content_store 	hits[22] 	0
scalar geant_cost_network.node[22].content_store 	misses[22] 	147425
scalar geant_cost_network.node[22].content_store 	decision_yes[22] 	0
scalar geant_cost_network.node[22].content_store 	decision_no[22] 	147425
scalar geant_cost_network.node[22].content_store 	decision_ratio[22] 	0
scalar geant_cost_network.node[23].core_layer 	interests[23] 	142830
scalar geant_cost_network.node[23].core_layer 	repo_load[23] 	142830
scalar geant_cost_network.node[23].core_layer 	data[23] 	0
scalar geant_cost_network.node[23].content_store 	p_hit[23] 	0
scalar geant_cost_network.node[23].content_store 	hits[23] 	0
scalar geant_cost_network.node[23].content_store 	misses[23] 	142830
scalar geant_cost_network.node[23].content_store 	decision_yes[23] 	0
scalar geant_cost_network.node[23].content_store 	decision_no[23] 	142830
scalar geant_cost_network.node[23].content_store 	decision_ratio[23] 	0
scalar geant_cost_network.node[24].core_layer 	interests[24] 	146313
scalar geant_cost_network.node[24].core_layer 	repo_load[24] 	146313
scalar geant_cost_network.node[24].core_layer 	data[24] 	0
scalar geant_cost_network.node[24].content_store 	p_hit[24] 	0
scalar geant_cost_network.node[24].content_store 	hits[24] 	0
scalar geant_cost_network.node[24].content_store 	misses[24] 	146313
scalar geant_cost_network.node[24].content_store 	decision_yes[24] 	0
scalar geant_cost_network.node[24].content_store 	decision_no[24] 	146313
scalar geant_cost_network.node[24].content_store 	decision_ratio[24] 	0
scalar geant_cost_network.client[5] 	hdistance[5] 	2.3827808158974
scalar geant_cost_network.client[5] 	downloads[5] 	179753
scalar geant_cost_network.client[5] 	avg_time[5] 	0.007415478719
scalar geant_cost_network.client[5] 	interests_sent[5] 	179797
scalar geant_cost_network.client[9] 	hdistance[9] 	2.4615068180934
scalar geant_cost_network.client[9] 	downloads[9] 	179889
scalar geant_cost_network.client[9] 	avg_time[9] 	0.005018318374
scalar geant_cost_network.client[9] 	interests_sent[9] 	179943
scalar geant_cost_network.client[10] 	hdistance[10] 	3.1049649801989
scalar geant_cost_network.client[10] 	downloads[10] 	180041
scalar geant_cost_network.client[10] 	avg_time[10] 	0.006316980533
scalar geant_cost_network.client[10] 	interests_sent[10] 	180099
scalar geant_cost_network.client[12] 	hdistance[12] 	2.5805717148663
scalar geant_cost_network.client[12] 	downloads[12] 	179635
scalar geant_cost_network.client[12] 	avg_time[12] 	0.005876434463
scalar geant_cost_network.client[12] 	interests_sent[12] 	179684
scalar geant_cost_network.client[20] 	hdistance[20] 	2.6578306854892
scalar geant_cost_network.client[20] 	downloads[20] 	180776
scalar geant_cost_network.client[20] 	avg_time[20] 	0.005264058491
scalar geant_cost_network.client[20] 	interests_sent[20] 	180808
