version 2
run General-1-20140723-22:08:16-7834
attr D costprobprodcorr0.01
attr F nrr
attr R lru
attr a 1
attr configname General
attr csize 10
attr ctlg 1e3
attr datetime 20140723-22:08:16
attr experiment General
attr inifile omnetpp.ini
attr iterationvars "$net=abilene_cost, $rep=15, $priceratiovalue=100, $weights=0.333_0.333_0.334, $lambda=100, $a=1, $ctlg=1e3, $F=nrr, $ttl=10, $D=costprobprodcorr0.01, $xi=1, $R=lru, $csize=10, $pricebits=0, $window=60, $variance=0.05, $mytime=1800"
attr iterationvars2 "$net=abilene_cost, $rep=15, $priceratiovalue=100, $weights=0.333_0.333_0.334, $lambda=100, $a=1, $ctlg=1e3, $F=nrr, $ttl=10, $D=costprobprodcorr0.01, $xi=1, $R=lru, $csize=10, $pricebits=0, $window=60, $variance=0.05, $mytime=1800, $repetition=0"
attr lambda 100
attr measurement "$net=abilene_cost, $rep=15, $priceratiovalue=100, $weights=0.333_0.333_0.334, $lambda=100, $a=1, $ctlg=1e3, $F=nrr, $ttl=10, $D=costprobprodcorr0.01, $xi=1, $R=lru, $csize=10, $pricebits=0, $window=60, $variance=0.05, $mytime=1800"
attr mytime 1800
attr net abilene_cost
attr network networks.${net=abilene_cost}_network
attr pricebits 0
attr priceratiovalue 100
attr processid 7834
attr rep 15
attr repetition 0
attr replication #0
attr resultdir results
attr runnumber 1
attr seedset 15
attr ttl 10
attr variance 0.05
attr weights 0.333_0.333_0.334
attr window 60
attr xi 1

scalar . 	a 	1
scalar . 	csize 	10
scalar . 	ctlg 	1e3
scalar . 	lambda 	100
scalar . 	mytime 	1800
scalar . 	pricebits 	0
scalar . 	priceratiovalue 	100
scalar . 	rep 	15
scalar . 	ttl 	10
scalar . 	variance 	0.05
scalar . 	window 	60
scalar . 	xi 	1
scalar abilene_cost_network.content_distribution 	repo-0 	11
scalar abilene_cost_network.content_distribution 	repo-1 	12
scalar abilene_cost_network.content_distribution 	repo-2 	13
scalar abilene_cost_network.content_distribution 	client-0 	5
scalar abilene_cost_network.content_distribution 	client-1 	0
scalar abilene_cost_network.content_distribution 	client-2 	9
scalar abilene_cost_network.content_distribution 	repo-0_card 	368
scalar abilene_cost_network.content_distribution 	repo-1_card 	322
scalar abilene_cost_network.content_distribution 	repo-2_card 	310
scalar abilene_cost_network.statistics 	popularity_indication[0] 	2.7245780034492
scalar abilene_cost_network.statistics 	repo_popularity[0] 	0.36398218017362
scalar abilene_cost_network.statistics 	popularity_indication[1] 	1.7228840447896
scalar abilene_cost_network.statistics 	repo_popularity[1] 	0.23016375013487
scalar abilene_cost_network.statistics 	popularity_indication[2] 	3.0380088123116
scalar abilene_cost_network.statistics 	repo_popularity[2] 	0.40585406969151
scalar abilene_cost_network.statistics 	stabilization_time 	203.2
scalar abilene_cost_network.node[1].face$o[4].channel 	price[1] 	0
scalar abilene_cost_network.node[1].face$o[4].channel 	represented_price[1] 	0
scalar abilene_cost_network.node[7].face$o[4].channel 	price[7] 	0
scalar abilene_cost_network.node[7].face$o[4].channel 	represented_price[7] 	0
scalar abilene_cost_network.node[10].face$o[4].channel 	price[10] 	0
scalar abilene_cost_network.node[10].face$o[4].channel 	represented_price[10] 	0
scalar abilene_cost_network.node[11].face$o[1].channel 	price[11] 	0
scalar abilene_cost_network.node[11].face$o[1].channel 	represented_price[11] 	0
scalar abilene_cost_network.node[12].face$o[1].channel 	price[12] 	1
scalar abilene_cost_network.node[12].face$o[1].channel 	represented_price[12] 	1
scalar abilene_cost_network.node[13].face$o[1].channel 	price[13] 	100
scalar abilene_cost_network.node[13].face$o[1].channel 	represented_price[13] 	100
scalar abilene_cost_network.statistics 	p_hit 	0.03964055581144
scalar abilene_cost_network.statistics 	interests 	156630.71428571
scalar abilene_cost_network.statistics 	data 	118061.07142857
scalar abilene_cost_network.statistics 	hdistance 	4.0143388349843
scalar abilene_cost_network.statistics 	avg_time 	0.015005133467
scalar abilene_cost_network.statistics 	downloads 	520139
scalar abilene_cost_network.statistics 	total_cost 	13071279
scalar abilene_cost_network.statistics 	total_cost_other 	0
scalar abilene_cost_network.statistics 	total_replicas 	1000
scalar abilene_cost_network.statistics 	inner_hit 	0.16753790813609
scalar abilene_cost_network.statistics 	interests_sent 	539972
scalar abilene_cost_network.node[0].core_layer 	interests[0] 	186085
scalar abilene_cost_network.node[0].core_layer 	data[0] 	168902
scalar abilene_cost_network.node[0].core_layer 	repo_int[0] 	432996
scalar abilene_cost_network.node[0].content_store 	p_hit[0] 	0.061439664669372
scalar abilene_cost_network.node[0].content_store 	hits[0] 	11433
scalar abilene_cost_network.node[0].content_store 	misses[0] 	174652
scalar abilene_cost_network.node[0].content_store 	decision_yes[0] 	1366
scalar abilene_cost_network.node[0].content_store 	decision_no[0] 	167533
scalar abilene_cost_network.node[0].content_store 	decision_ratio[0] 	0.0080876736984825
scalar abilene_cost_network.node[0].content_store 	correction_factor[0] 	0.00029644561705155
scalar abilene_cost_network.node[0].content_store 	xi[0] 	1
scalar abilene_cost_network.node[1].core_layer 	interests[1] 	253460
scalar abilene_cost_network.node[1].core_layer 	data[1] 	245377
scalar abilene_cost_network.node[1].content_store 	p_hit[1] 	0.03188668823483
scalar abilene_cost_network.node[1].content_store 	hits[1] 	8082
scalar abilene_cost_network.node[1].content_store 	misses[1] 	245378
scalar abilene_cost_network.node[1].content_store 	decision_yes[1] 	3862
scalar abilene_cost_network.node[1].content_store 	decision_no[1] 	241454
scalar abilene_cost_network.node[1].content_store 	decision_ratio[1] 	0.015742960100442
scalar abilene_cost_network.node[1].content_store 	correction_factor[1] 	0.00029644561705155
scalar abilene_cost_network.node[1].content_store 	xi[1] 	1
scalar abilene_cost_network.node[2].core_layer 	interests[2] 	166654
scalar abilene_cost_network.node[2].core_layer 	data[2] 	160406
scalar abilene_cost_network.node[2].content_store 	p_hit[2] 	0.036722790932111
scalar abilene_cost_network.node[2].content_store 	hits[2] 	6120
scalar abilene_cost_network.node[2].content_store 	misses[2] 	160534
scalar abilene_cost_network.node[2].content_store 	decision_yes[2] 	1206
scalar abilene_cost_network.node[2].content_store 	decision_no[2] 	159156
scalar abilene_cost_network.node[2].content_store 	decision_ratio[2] 	0.0075204849029072
scalar abilene_cost_network.node[2].content_store 	correction_factor[2] 	0.00029644561705155
scalar abilene_cost_network.node[2].content_store 	xi[2] 	1
scalar abilene_cost_network.node[3].core_layer 	interests[3] 	159475
scalar abilene_cost_network.node[3].core_layer 	data[3] 	153211
scalar abilene_cost_network.node[3].content_store 	p_hit[3] 	0.039266342686942
scalar abilene_cost_network.node[3].content_store 	hits[3] 	6262
scalar abilene_cost_network.node[3].content_store 	misses[3] 	153213
scalar abilene_cost_network.node[3].content_store 	decision_yes[3] 	1198
scalar abilene_cost_network.node[3].content_store 	decision_no[3] 	151997
scalar abilene_cost_network.node[3].content_store 	decision_ratio[3] 	0.0078200985671856
scalar abilene_cost_network.node[3].content_store 	correction_factor[3] 	0.00029644561705155
scalar abilene_cost_network.node[3].content_store 	xi[3] 	1
scalar abilene_cost_network.node[4].core_layer 	interests[4] 	118662
scalar abilene_cost_network.node[4].core_layer 	data[4] 	114258
scalar abilene_cost_network.node[4].content_store 	p_hit[4] 	0.037113819082773
scalar abilene_cost_network.node[4].content_store 	hits[4] 	4404
scalar abilene_cost_network.node[4].content_store 	misses[4] 	114258
scalar abilene_cost_network.node[4].content_store 	decision_yes[4] 	1215
scalar abilene_cost_network.node[4].content_store 	decision_no[4] 	113043
scalar abilene_cost_network.node[4].content_store 	decision_ratio[4] 	0.010633828703461
scalar abilene_cost_network.node[4].content_store 	correction_factor[4] 	0.00029644561705155
scalar abilene_cost_network.node[4].content_store 	xi[4] 	1
scalar abilene_cost_network.node[5].core_layer 	interests[5] 	182082
scalar abilene_cost_network.node[5].core_layer 	data[5] 	169845
scalar abilene_cost_network.node[5].content_store 	p_hit[5] 	0.022726024538395
scalar abilene_cost_network.node[5].content_store 	hits[5] 	4138
scalar abilene_cost_network.node[5].content_store 	misses[5] 	177944
scalar abilene_cost_network.node[5].content_store 	decision_yes[5] 	1211
scalar abilene_cost_network.node[5].content_store 	decision_no[5] 	168634
scalar abilene_cost_network.node[5].content_store 	decision_ratio[5] 	0.007130030321764
scalar abilene_cost_network.node[5].content_store 	correction_factor[5] 	0.00029644561705155
scalar abilene_cost_network.node[5].content_store 	xi[5] 	1
scalar abilene_cost_network.node[6].core_layer 	interests[6] 	59527
scalar abilene_cost_network.node[6].core_layer 	data[6] 	48724
scalar abilene_cost_network.node[6].content_store 	p_hit[6] 	0.18146387353638
scalar abilene_cost_network.node[6].content_store 	hits[6] 	10802
scalar abilene_cost_network.node[6].content_store 	misses[6] 	48725
scalar abilene_cost_network.node[6].content_store 	decision_yes[6] 	18
scalar abilene_cost_network.node[6].content_store 	decision_no[6] 	48706
scalar abilene_cost_network.node[6].content_store 	decision_ratio[6] 	0.00036942779738938
scalar abilene_cost_network.node[6].content_store 	correction_factor[6] 	0.00029644561705155
scalar abilene_cost_network.node[6].content_store 	xi[6] 	1
scalar abilene_cost_network.node[7].core_layer 	interests[7] 	129739
scalar abilene_cost_network.node[7].core_layer 	data[7] 	125307
scalar abilene_cost_network.node[7].content_store 	p_hit[7] 	0.033629055257093
scalar abilene_cost_network.node[7].content_store 	hits[7] 	4363
scalar abilene_cost_network.node[7].content_store 	misses[7] 	125376
scalar abilene_cost_network.node[7].content_store 	decision_yes[7] 	32
scalar abilene_cost_network.node[7].content_store 	decision_no[7] 	125273
scalar abilene_cost_network.node[7].content_store 	decision_ratio[7] 	0.0002553768804118
scalar abilene_cost_network.node[7].content_store 	correction_factor[7] 	0.00029644561705155
scalar abilene_cost_network.node[7].content_store 	xi[7] 	1
scalar abilene_cost_network.node[8].core_layer 	interests[8] 	68037
scalar abilene_cost_network.node[8].core_layer 	data[8] 	51794
scalar abilene_cost_network.node[8].content_store 	p_hit[8] 	0.23872304775343
scalar abilene_cost_network.node[8].content_store 	hits[8] 	16242
scalar abilene_cost_network.node[8].content_store 	misses[8] 	51795
scalar abilene_cost_network.node[8].content_store 	decision_yes[8] 	11
scalar abilene_cost_network.node[8].content_store 	decision_no[8] 	51783
scalar abilene_cost_network.node[8].content_store 	decision_ratio[8] 	0.00021237981233347
scalar abilene_cost_network.node[8].content_store 	correction_factor[8] 	0.00029644561705155
scalar abilene_cost_network.node[8].content_store 	xi[8] 	1
scalar abilene_cost_network.node[9].core_layer 	interests[9] 	185402
scalar abilene_cost_network.node[9].core_layer 	data[9] 	171144
scalar abilene_cost_network.node[9].content_store 	p_hit[9] 	0.044546445022168
scalar abilene_cost_network.node[9].content_store 	hits[9] 	8259
scalar abilene_cost_network.node[9].content_store 	misses[9] 	177143
scalar abilene_cost_network.node[9].content_store 	decision_yes[9] 	1230
scalar abilene_cost_network.node[9].content_store 	decision_no[9] 	169914
scalar abilene_cost_network.node[9].content_store 	decision_ratio[9] 	0.0071869303043051
scalar abilene_cost_network.node[9].content_store 	correction_factor[9] 	0.00029644561705155
scalar abilene_cost_network.node[9].content_store 	xi[9] 	1
scalar abilene_cost_network.node[10].core_layer 	interests[10] 	250711
scalar abilene_cost_network.node[10].core_layer 	data[10] 	243887
scalar abilene_cost_network.node[10].content_store 	p_hit[10] 	0.027202635704058
scalar abilene_cost_network.node[10].content_store 	hits[10] 	6820
scalar abilene_cost_network.node[10].content_store 	misses[10] 	243891
scalar abilene_cost_network.node[10].content_store 	decision_yes[10] 	1222
scalar abilene_cost_network.node[10].content_store 	decision_no[10] 	242656
scalar abilene_cost_network.node[10].content_store 	decision_ratio[10] 	0.0050107020723476
scalar abilene_cost_network.node[10].content_store 	correction_factor[10] 	0.00029644561705155
scalar abilene_cost_network.node[10].content_store 	xi[10] 	1
scalar abilene_cost_network.node[11].core_layer 	interests[11] 	192513
scalar abilene_cost_network.node[11].core_layer 	repo_load[11] 	192513
scalar abilene_cost_network.node[11].core_layer 	data[11] 	0
scalar abilene_cost_network.node[11].content_store 	p_hit[11] 	0
scalar abilene_cost_network.node[11].content_store 	hits[11] 	0
scalar abilene_cost_network.node[11].content_store 	misses[11] 	192513
scalar abilene_cost_network.node[11].content_store 	decision_yes[11] 	0
scalar abilene_cost_network.node[11].content_store 	decision_no[11] 	192513
scalar abilene_cost_network.node[11].content_store 	decision_ratio[11] 	0
scalar abilene_cost_network.node[12].core_layer 	interests[12] 	110879
scalar abilene_cost_network.node[12].core_layer 	repo_load[12] 	110879
scalar abilene_cost_network.node[12].core_layer 	data[12] 	0
scalar abilene_cost_network.node[12].content_store 	p_hit[12] 	0
scalar abilene_cost_network.node[12].content_store 	hits[12] 	0
scalar abilene_cost_network.node[12].content_store 	misses[12] 	110879
scalar abilene_cost_network.node[12].content_store 	decision_yes[12] 	0
scalar abilene_cost_network.node[12].content_store 	decision_no[12] 	110879
scalar abilene_cost_network.node[12].content_store 	decision_ratio[12] 	0
scalar abilene_cost_network.node[13].core_layer 	interests[13] 	129604
scalar abilene_cost_network.node[13].core_layer 	repo_load[13] 	129604
scalar abilene_cost_network.node[13].core_layer 	data[13] 	0
scalar abilene_cost_network.node[13].content_store 	p_hit[13] 	0
scalar abilene_cost_network.node[13].content_store 	hits[13] 	0
scalar abilene_cost_network.node[13].content_store 	misses[13] 	129604
scalar abilene_cost_network.node[13].content_store 	decision_yes[13] 	0
scalar abilene_cost_network.node[13].content_store 	decision_no[13] 	129604
scalar abilene_cost_network.node[13].content_store 	decision_ratio[13] 	0
scalar abilene_cost_network.client[0] 	hdistance[0] 	3.4833723950085
scalar abilene_cost_network.client[0] 	downloads[0] 	173657
scalar abilene_cost_network.client[0] 	avg_time[0] 	0.013324913146
scalar abilene_cost_network.client[0] 	interests_sent[0] 	179398
scalar abilene_cost_network.client[5] 	hdistance[5] 	5.2953603640204
scalar abilene_cost_network.client[5] 	downloads[5] 	172298
scalar abilene_cost_network.client[5] 	avg_time[5] 	0.019709005462
scalar abilene_cost_network.client[5] 	interests_sent[5] 	180395
scalar abilene_cost_network.client[9] 	hdistance[9] 	3.2642837459239
scalar abilene_cost_network.client[9] 	downloads[9] 	174184
scalar abilene_cost_network.client[9] 	avg_time[9] 	0.011981481794
scalar abilene_cost_network.client[9] 	interests_sent[9] 	180179
