version 2
run General-8-20140703-16:20:15-9340
attr D tailandrank
attr F nrr
attr R lru
attr a 1
attr configname General
attr csize 1e3
attr ctlg 1e5
attr datetime 20140703-16:20:15
attr experiment General
attr inifile omnetpp.ini
attr iterationvars "$net=geant_cost, $rep=3, $priceratiovalue=10, $weights=0.333_0.333_0.334, $lambda=100, $a=1, $ctlg=1e5, $F=nrr, $ttl=1000, $D=tailandrank, $xi=1, $R=lru, $csize=1e3, $pricebits=0, $window=60, $variance=0.05, $mytime=1800"
attr iterationvars2 "$net=geant_cost, $rep=3, $priceratiovalue=10, $weights=0.333_0.333_0.334, $lambda=100, $a=1, $ctlg=1e5, $F=nrr, $ttl=1000, $D=tailandrank, $xi=1, $R=lru, $csize=1e3, $pricebits=0, $window=60, $variance=0.05, $mytime=1800, $repetition=0"
attr lambda 100
attr measurement "$net=geant_cost, $rep=3, $priceratiovalue=10, $weights=0.333_0.333_0.334, $lambda=100, $a=1, $ctlg=1e5, $F=nrr, $ttl=1000, $D=tailandrank, $xi=1, $R=lru, $csize=1e3, $pricebits=0, $window=60, $variance=0.05, $mytime=1800"
attr mytime 1800
attr net geant_cost
attr network "networks.${net=geant_cost, abilene_cost}_network"
attr pricebits 0
attr priceratiovalue 10
attr processid 9340
attr rep 3
attr repetition 0
attr replication #0
attr resultdir results
attr runnumber 8
attr seedset 3
attr ttl 1000
attr variance 0.05
attr weights 0.333_0.333_0.334
attr window 60
attr xi 1

scalar . 	a 	1
scalar . 	csize 	1e3
scalar . 	ctlg 	1e5
scalar . 	lambda 	100
scalar . 	mytime 	1800
scalar . 	pricebits 	0
scalar . 	priceratiovalue 	10
scalar . 	rep 	3
scalar . 	ttl 	1000
scalar . 	variance 	0.05
scalar . 	window 	60
scalar . 	xi 	1
scalar geant_cost_network.content_distribution 	repo-0 	22
scalar geant_cost_network.content_distribution 	repo-1 	23
scalar geant_cost_network.content_distribution 	repo-2 	24
scalar geant_cost_network.content_distribution 	client-0 	20
scalar geant_cost_network.content_distribution 	client-1 	10
scalar geant_cost_network.content_distribution 	client-2 	12
scalar geant_cost_network.content_distribution 	client-3 	9
scalar geant_cost_network.content_distribution 	client-4 	5
scalar geant_cost_network.content_distribution 	repo-0_card 	33496
scalar geant_cost_network.content_distribution 	repo-1_card 	33170
scalar geant_cost_network.content_distribution 	repo-2_card 	33334
scalar geant_cost_network.statistics 	repo_popularity[0] 	0.34985511604573
scalar geant_cost_network.statistics 	repo_popularity[1] 	0.30142619076767
scalar geant_cost_network.statistics 	repo_popularity[2] 	0.3487186931866
scalar geant_cost_network.statistics 	stabilization_time 	36120
scalar geant_cost_network.node[7].face$o[4].channel 	price[7] 	0
scalar geant_cost_network.node[7].face$o[4].channel 	represented_price[7] 	0
scalar geant_cost_network.node[8].face$o[3].channel 	price[8] 	0
scalar geant_cost_network.node[8].face$o[3].channel 	represented_price[8] 	0
scalar geant_cost_network.node[21].face$o[5].channel 	price[21] 	0
scalar geant_cost_network.node[21].face$o[5].channel 	represented_price[21] 	0
scalar geant_cost_network.node[22].face$o[1].channel 	price[22] 	0
scalar geant_cost_network.node[22].face$o[1].channel 	represented_price[22] 	0
scalar geant_cost_network.node[23].face$o[1].channel 	price[23] 	1
scalar geant_cost_network.node[23].face$o[1].channel 	represented_price[23] 	1
scalar geant_cost_network.node[24].face$o[1].channel 	price[24] 	10
scalar geant_cost_network.node[24].face$o[1].channel 	represented_price[24] 	10
scalar geant_cost_network.statistics 	p_hit 	0.12482281891146
scalar geant_cost_network.statistics 	interests 	117252.92
scalar geant_cost_network.statistics 	data 	81285.16
scalar geant_cost_network.statistics 	hdistance 	2.8536925619623
scalar geant_cost_network.statistics 	avg_time 	0.004359693797
scalar geant_cost_network.statistics 	downloads 	899102
scalar geant_cost_network.statistics 	total_cost 	1838089
scalar geant_cost_network.statistics 	total_replicas 	100000
scalar geant_cost_network.statistics 	inner_hit 	0.40704169271117
scalar geant_cost_network.statistics 	interests_sent 	899193
scalar geant_cost_network.node[0].core_layer 	interests[0] 	0
scalar geant_cost_network.node[0].core_layer 	data[0] 	0
scalar geant_cost_network.node[0].core_layer 	repo_int[0] 	533130
scalar geant_cost_network.node[0].content_store 	p_hit[0] 	-nan
scalar geant_cost_network.node[0].content_store 	hits[0] 	0
scalar geant_cost_network.node[0].content_store 	misses[0] 	0
scalar geant_cost_network.node[0].content_store 	decision_yes[0] 	0
scalar geant_cost_network.node[0].content_store 	decision_no[0] 	0
scalar geant_cost_network.node[0].content_store 	decision_ratio[0] 	0
scalar geant_cost_network.node[1].core_layer 	interests[1] 	0
scalar geant_cost_network.node[1].core_layer 	data[1] 	0
scalar geant_cost_network.node[1].content_store 	p_hit[1] 	-nan
scalar geant_cost_network.node[1].content_store 	hits[1] 	0
scalar geant_cost_network.node[1].content_store 	misses[1] 	0
scalar geant_cost_network.node[1].content_store 	decision_yes[1] 	0
scalar geant_cost_network.node[1].content_store 	decision_no[1] 	0
scalar geant_cost_network.node[1].content_store 	decision_ratio[1] 	0
scalar geant_cost_network.node[2].core_layer 	interests[2] 	0
scalar geant_cost_network.node[2].core_layer 	data[2] 	0
scalar geant_cost_network.node[2].content_store 	p_hit[2] 	-nan
scalar geant_cost_network.node[2].content_store 	hits[2] 	0
scalar geant_cost_network.node[2].content_store 	misses[2] 	0
scalar geant_cost_network.node[2].content_store 	decision_yes[2] 	0
scalar geant_cost_network.node[2].content_store 	decision_no[2] 	0
scalar geant_cost_network.node[2].content_store 	decision_ratio[2] 	0
scalar geant_cost_network.node[3].core_layer 	interests[3] 	148373
scalar geant_cost_network.node[3].core_layer 	data[3] 	142981
scalar geant_cost_network.node[3].content_store 	p_hit[3] 	0.036347583455211
scalar geant_cost_network.node[3].content_store 	hits[3] 	5393
scalar geant_cost_network.node[3].content_store 	misses[3] 	142980
scalar geant_cost_network.node[3].content_store 	decision_yes[3] 	0
scalar geant_cost_network.node[3].content_store 	decision_no[3] 	142981
scalar geant_cost_network.node[3].content_store 	decision_ratio[3] 	0
scalar geant_cost_network.node[4].core_layer 	interests[4] 	217985
scalar geant_cost_network.node[4].core_layer 	data[4] 	216954
scalar geant_cost_network.node[4].content_store 	p_hit[4] 	0.0047159208202399
scalar geant_cost_network.node[4].content_store 	hits[4] 	1028
scalar geant_cost_network.node[4].content_store 	misses[4] 	216957
scalar geant_cost_network.node[4].content_store 	decision_yes[4] 	0
scalar geant_cost_network.node[4].content_store 	decision_no[4] 	216954
scalar geant_cost_network.node[4].content_store 	decision_ratio[4] 	0
scalar geant_cost_network.node[5].core_layer 	interests[5] 	182063
scalar geant_cost_network.node[5].core_layer 	data[5] 	116261
scalar geant_cost_network.node[5].content_store 	p_hit[5] 	0.36123210097604
scalar geant_cost_network.node[5].content_store 	hits[5] 	65767
scalar geant_cost_network.node[5].content_store 	misses[5] 	116296
scalar geant_cost_network.node[5].content_store 	decision_yes[5] 	0
scalar geant_cost_network.node[5].content_store 	decision_no[5] 	116261
scalar geant_cost_network.node[5].content_store 	decision_ratio[5] 	0
scalar geant_cost_network.node[6].core_layer 	interests[6] 	79989
scalar geant_cost_network.node[6].core_layer 	data[6] 	75028
scalar geant_cost_network.node[6].content_store 	p_hit[6] 	0.061996024453362
scalar geant_cost_network.node[6].content_store 	hits[6] 	4959
scalar geant_cost_network.node[6].content_store 	misses[6] 	75030
scalar geant_cost_network.node[6].content_store 	decision_yes[6] 	0
scalar geant_cost_network.node[6].content_store 	decision_no[6] 	75028
scalar geant_cost_network.node[6].content_store 	decision_ratio[6] 	0
scalar geant_cost_network.node[7].core_layer 	interests[7] 	265431
scalar geant_cost_network.node[7].core_layer 	data[7] 	261508
scalar geant_cost_network.node[7].content_store 	p_hit[7] 	0.014760898312556
scalar geant_cost_network.node[7].content_store 	hits[7] 	3918
scalar geant_cost_network.node[7].content_store 	misses[7] 	261513
scalar geant_cost_network.node[7].content_store 	decision_yes[7] 	0
scalar geant_cost_network.node[7].content_store 	decision_no[7] 	261508
scalar geant_cost_network.node[7].content_store 	decision_ratio[7] 	0
scalar geant_cost_network.node[8].core_layer 	interests[8] 	266188
scalar geant_cost_network.node[8].core_layer 	data[8] 	258667
scalar geant_cost_network.node[8].content_store 	p_hit[8] 	0.028258223511203
scalar geant_cost_network.node[8].content_store 	hits[8] 	7522
scalar geant_cost_network.node[8].content_store 	misses[8] 	258666
scalar geant_cost_network.node[8].content_store 	decision_yes[8] 	0
scalar geant_cost_network.node[8].content_store 	decision_no[8] 	258667
scalar geant_cost_network.node[8].content_store 	decision_ratio[8] 	0
scalar geant_cost_network.node[9].core_layer 	interests[9] 	331765
scalar geant_cost_network.node[9].core_layer 	data[9] 	265698
scalar geant_cost_network.node[9].content_store 	p_hit[9] 	0.19900532003074
scalar geant_cost_network.node[9].content_store 	hits[9] 	66023
scalar geant_cost_network.node[9].content_store 	misses[9] 	265742
scalar geant_cost_network.node[9].content_store 	decision_yes[9] 	0
scalar geant_cost_network.node[9].content_store 	decision_no[9] 	265698
scalar geant_cost_network.node[9].content_store 	decision_ratio[9] 	0
scalar geant_cost_network.node[10].core_layer 	interests[10] 	179361
scalar geant_cost_network.node[10].core_layer 	data[10] 	114069
scalar geant_cost_network.node[10].content_store 	p_hit[10] 	0.36394199407898
scalar geant_cost_network.node[10].content_store 	hits[10] 	65277
scalar geant_cost_network.node[10].content_store 	misses[10] 	114084
scalar geant_cost_network.node[10].content_store 	decision_yes[10] 	0
scalar geant_cost_network.node[10].content_store 	decision_no[10] 	114069
scalar geant_cost_network.node[10].content_store 	decision_ratio[10] 	0
scalar geant_cost_network.node[11].core_layer 	interests[11] 	0
scalar geant_cost_network.node[11].core_layer 	data[11] 	0
scalar geant_cost_network.node[11].content_store 	p_hit[11] 	-nan
scalar geant_cost_network.node[11].content_store 	hits[11] 	0
scalar geant_cost_network.node[11].content_store 	misses[11] 	0
scalar geant_cost_network.node[11].content_store 	decision_yes[11] 	0
scalar geant_cost_network.node[11].content_store 	decision_no[11] 	0
scalar geant_cost_network.node[11].content_store 	decision_ratio[11] 	0
scalar geant_cost_network.node[12].core_layer 	interests[12] 	252560
scalar geant_cost_network.node[12].core_layer 	data[12] 	187031
scalar geant_cost_network.node[12].content_store 	p_hit[12] 	0.25928492239468
scalar geant_cost_network.node[12].content_store 	hits[12] 	65485
scalar geant_cost_network.node[12].content_store 	misses[12] 	187075
scalar geant_cost_network.node[12].content_store 	decision_yes[12] 	0
scalar geant_cost_network.node[12].content_store 	decision_no[12] 	187031
scalar geant_cost_network.node[12].content_store 	decision_ratio[12] 	0
scalar geant_cost_network.node[13].core_layer 	interests[13] 	2818
scalar geant_cost_network.node[13].core_layer 	data[13] 	0
scalar geant_cost_network.node[13].content_store 	p_hit[13] 	1
scalar geant_cost_network.node[13].content_store 	hits[13] 	2818
scalar geant_cost_network.node[13].content_store 	misses[13] 	0
scalar geant_cost_network.node[13].content_store 	decision_yes[13] 	0
scalar geant_cost_network.node[13].content_store 	decision_no[13] 	0
scalar geant_cost_network.node[13].content_store 	decision_ratio[13] 	0
scalar geant_cost_network.node[14].core_layer 	interests[14] 	37995
scalar geant_cost_network.node[14].core_layer 	data[14] 	36362
scalar geant_cost_network.node[14].content_store 	p_hit[14] 	0.042979339386761
scalar geant_cost_network.node[14].content_store 	hits[14] 	1633
scalar geant_cost_network.node[14].content_store 	misses[14] 	36362
scalar geant_cost_network.node[14].content_store 	decision_yes[14] 	0
scalar geant_cost_network.node[14].content_store 	decision_no[14] 	36362
scalar geant_cost_network.node[14].content_store 	decision_ratio[14] 	0
scalar geant_cost_network.node[15].core_layer 	interests[15] 	0
scalar geant_cost_network.node[15].core_layer 	data[15] 	0
scalar geant_cost_network.node[15].content_store 	p_hit[15] 	-nan
scalar geant_cost_network.node[15].content_store 	hits[15] 	0
scalar geant_cost_network.node[15].content_store 	misses[15] 	0
scalar geant_cost_network.node[15].content_store 	decision_yes[15] 	0
scalar geant_cost_network.node[15].content_store 	decision_no[15] 	0
scalar geant_cost_network.node[15].content_store 	decision_ratio[15] 	0
scalar geant_cost_network.node[16].core_layer 	interests[16] 	0
scalar geant_cost_network.node[16].core_layer 	data[16] 	0
scalar geant_cost_network.node[16].content_store 	p_hit[16] 	-nan
scalar geant_cost_network.node[16].content_store 	hits[16] 	0
scalar geant_cost_network.node[16].content_store 	misses[16] 	0
scalar geant_cost_network.node[16].content_store 	decision_yes[16] 	0
scalar geant_cost_network.node[16].content_store 	decision_no[16] 	0
scalar geant_cost_network.node[16].content_store 	decision_ratio[16] 	0
scalar geant_cost_network.node[17].core_layer 	interests[17] 	0
scalar geant_cost_network.node[17].core_layer 	data[17] 	0
scalar geant_cost_network.node[17].content_store 	p_hit[17] 	-nan
scalar geant_cost_network.node[17].content_store 	hits[17] 	0
scalar geant_cost_network.node[17].content_store 	misses[17] 	0
scalar geant_cost_network.node[17].content_store 	decision_yes[17] 	0
scalar geant_cost_network.node[17].content_store 	decision_no[17] 	0
scalar geant_cost_network.node[17].content_store 	decision_ratio[17] 	0
scalar geant_cost_network.node[18].core_layer 	interests[18] 	81517
scalar geant_cost_network.node[18].core_layer 	data[18] 	77559
scalar geant_cost_network.node[18].content_store 	p_hit[18] 	0.048554289289351
scalar geant_cost_network.node[18].content_store 	hits[18] 	3958
scalar geant_cost_network.node[18].content_store 	misses[18] 	77559
scalar geant_cost_network.node[18].content_store 	decision_yes[18] 	0
scalar geant_cost_network.node[18].content_store 	decision_no[18] 	77559
scalar geant_cost_network.node[18].content_store 	decision_ratio[18] 	0
scalar geant_cost_network.node[19].core_layer 	interests[19] 	0
scalar geant_cost_network.node[19].core_layer 	data[19] 	0
scalar geant_cost_network.node[19].content_store 	p_hit[19] 	-nan
scalar geant_cost_network.node[19].content_store 	hits[19] 	0
scalar geant_cost_network.node[19].content_store 	misses[19] 	0
scalar geant_cost_network.node[19].content_store 	decision_yes[19] 	0
scalar geant_cost_network.node[19].content_store 	decision_no[19] 	0
scalar geant_cost_network.node[19].content_store 	decision_ratio[19] 	0
scalar geant_cost_network.node[20].core_layer 	interests[20] 	180204
scalar geant_cost_network.node[20].core_layer 	data[20] 	114302
scalar geant_cost_network.node[20].content_store 	p_hit[20] 	0.36558566957448
scalar geant_cost_network.node[20].content_store 	hits[20] 	65880
scalar geant_cost_network.node[20].content_store 	misses[20] 	114324
scalar geant_cost_network.node[20].content_store 	decision_yes[20] 	0
scalar geant_cost_network.node[20].content_store 	decision_no[20] 	114302
scalar geant_cost_network.node[20].content_store 	decision_ratio[20] 	0
scalar geant_cost_network.node[21].core_layer 	interests[21] 	171944
scalar geant_cost_network.node[21].core_layer 	data[21] 	165709
scalar geant_cost_network.node[21].content_store 	p_hit[21] 	0.036261806169451
scalar geant_cost_network.node[21].content_store 	hits[21] 	6235
scalar geant_cost_network.node[21].content_store 	misses[21] 	165709
scalar geant_cost_network.node[21].content_store 	decision_yes[21] 	0
scalar geant_cost_network.node[21].content_store 	decision_no[21] 	165709
scalar geant_cost_network.node[21].content_store 	decision_ratio[21] 	0
scalar geant_cost_network.node[22].core_layer 	interests[22] 	186422
scalar geant_cost_network.node[22].core_layer 	repo_load[22] 	186422
scalar geant_cost_network.node[22].core_layer 	data[22] 	0
scalar geant_cost_network.node[22].content_store 	p_hit[22] 	0
scalar geant_cost_network.node[22].content_store 	hits[22] 	0
scalar geant_cost_network.node[22].content_store 	misses[22] 	186422
scalar geant_cost_network.node[22].content_store 	decision_yes[22] 	0
scalar geant_cost_network.node[22].content_store 	decision_no[22] 	186422
scalar geant_cost_network.node[22].content_store 	decision_ratio[22] 	0
scalar geant_cost_network.node[23].core_layer 	interests[23] 	180999
scalar geant_cost_network.node[23].core_layer 	repo_load[23] 	180999
scalar geant_cost_network.node[23].core_layer 	data[23] 	0
scalar geant_cost_network.node[23].content_store 	p_hit[23] 	0
scalar geant_cost_network.node[23].content_store 	hits[23] 	0
scalar geant_cost_network.node[23].content_store 	misses[23] 	180999
scalar geant_cost_network.node[23].content_store 	decision_yes[23] 	0
scalar geant_cost_network.node[23].content_store 	decision_no[23] 	180999
scalar geant_cost_network.node[23].content_store 	decision_ratio[23] 	0
scalar geant_cost_network.node[24].core_layer 	interests[24] 	165709
scalar geant_cost_network.node[24].core_layer 	repo_load[24] 	165709
scalar geant_cost_network.node[24].core_layer 	data[24] 	0
scalar geant_cost_network.node[24].content_store 	p_hit[24] 	0
scalar geant_cost_network.node[24].content_store 	hits[24] 	0
scalar geant_cost_network.node[24].content_store 	misses[24] 	165709
scalar geant_cost_network.node[24].content_store 	decision_yes[24] 	0
scalar geant_cost_network.node[24].content_store 	decision_no[24] 	165709
scalar geant_cost_network.node[24].content_store 	decision_ratio[24] 	0
scalar geant_cost_network.client[5] 	hdistance[5] 	2.6376665186501
scalar geant_cost_network.client[5] 	downloads[5] 	180160
scalar geant_cost_network.client[5] 	avg_time[5] 	0.006585158346
scalar geant_cost_network.client[5] 	interests_sent[5] 	180191
scalar geant_cost_network.client[9] 	hdistance[9] 	2.6263027350485
scalar geant_cost_network.client[9] 	downloads[9] 	179814
scalar geant_cost_network.client[9] 	avg_time[9] 	0.002872214812
scalar geant_cost_network.client[9] 	interests_sent[9] 	179826
scalar geant_cost_network.client[10] 	hdistance[10] 	3.2717373122345
scalar geant_cost_network.client[10] 	downloads[10] 	179346
scalar geant_cost_network.client[10] 	avg_time[10] 	0.004145206883
scalar geant_cost_network.client[10] 	interests_sent[10] 	179361
scalar geant_cost_network.client[12] 	hdistance[12] 	2.8530679287305
scalar geant_cost_network.client[12] 	downloads[12] 	179600
scalar geant_cost_network.client[12] 	avg_time[12] 	0.003451955924
scalar geant_cost_network.client[12] 	interests_sent[12] 	179611
scalar geant_cost_network.client[20] 	hdistance[20] 	2.8796883151481
scalar geant_cost_network.client[20] 	downloads[20] 	180182
scalar geant_cost_network.client[20] 	avg_time[20] 	0.004743933021
scalar geant_cost_network.client[20] 	interests_sent[20] 	180204
