version 2
run General-46-20140502-09:37:37-12684
attr D costprob0.005
attr F nrr
attr R lru
attr a 0.8
attr configname General
attr csize 1e3
attr ctlg 1e5
attr datetime 20140502-09:37:37
attr experiment General
attr inifile omnetpp.ini
attr iterationvars "$net=one_cache_scenario_3_links, $rep=2, $priceratiovalue=1, $weights=0.2_0.4_0.4, $a=0.8, $ctlg=1e5, $F=nrr, $ttl=1000, $D=costprob0.005, $xi=1, $R=lru, $csize=1e3"
attr iterationvars2 "$net=one_cache_scenario_3_links, $rep=2, $priceratiovalue=1, $weights=0.2_0.4_0.4, $a=0.8, $ctlg=1e5, $F=nrr, $ttl=1000, $D=costprob0.005, $xi=1, $R=lru, $csize=1e3, $repetition=0"
attr measurement "$net=one_cache_scenario_3_links, $rep=2, $priceratiovalue=1, $weights=0.2_0.4_0.4, $a=0.8, $ctlg=1e5, $F=nrr, $ttl=1000, $D=costprob0.005, $xi=1, $R=lru, $csize=1e3"
attr net one_cache_scenario_3_links
attr network networks.${net=one_cache_scenario_3_links}_network
attr priceratiovalue 1
attr processid 12684
attr rep 2
attr repetition 0
attr replication #0
attr resultdir results
attr runnumber 46
attr seedset 2
attr ttl 1000
attr weights 0.2_0.4_0.4
attr xi 1

scalar . 	a 	0.8
scalar . 	csize 	1e3
scalar . 	ctlg 	1e5
scalar . 	priceratiovalue 	1
scalar . 	rep 	2
scalar . 	ttl 	1000
scalar . 	xi 	1
scalar one_cache_scenario_3_links_network.content_distribution 	repo-0 	4
scalar one_cache_scenario_3_links_network.content_distribution 	repo-1 	5
scalar one_cache_scenario_3_links_network.content_distribution 	repo-2 	6
scalar one_cache_scenario_3_links_network.content_distribution 	client-0 	0
scalar one_cache_scenario_3_links_network.content_distribution 	repo-0_card 	20021
scalar one_cache_scenario_3_links_network.content_distribution 	repo-1_card 	39941
scalar one_cache_scenario_3_links_network.content_distribution 	repo-2_card 	40038
scalar one_cache_scenario_3_links_network.statistics 	p_hit 	0.077547496422236
scalar one_cache_scenario_3_links_network.statistics 	interests 	66681.714285714
scalar one_cache_scenario_3_links_network.statistics 	data 	41007.142857143
scalar one_cache_scenario_3_links_network.statistics 	hdistance 	1.5971889918875
scalar one_cache_scenario_3_links_network.statistics 	avg_time 	0
scalar one_cache_scenario_3_links_network.statistics 	downloads 	179722
scalar one_cache_scenario_3_links_network.statistics 	total_cost 	107413
scalar one_cache_scenario_3_links_network.statistics 	total_replicas 	100000
scalar one_cache_scenario_3_links_network.statistics 	interests_sent 	179722
scalar one_cache_scenario_3_links_network.node[0].core_layer 	interests[0] 	179722
scalar one_cache_scenario_3_links_network.node[0].core_layer 	data[0] 	143525
scalar one_cache_scenario_3_links_network.node[0].core_layer 	repo_int[0] 	143525
scalar one_cache_scenario_3_links_network.node[0].content_store 	p_hit[0] 	0.20140550405626
scalar one_cache_scenario_3_links_network.node[0].content_store 	hits[0] 	36197
scalar one_cache_scenario_3_links_network.node[0].content_store 	misses[0] 	143525
scalar one_cache_scenario_3_links_network.node[0].content_store 	decision_yes[0] 	748
scalar one_cache_scenario_3_links_network.node[0].content_store 	decision_no[0] 	142777
scalar one_cache_scenario_3_links_network.node[1].core_layer 	interests[1] 	36112
scalar one_cache_scenario_3_links_network.node[1].core_layer 	data[1] 	36112
scalar one_cache_scenario_3_links_network.node[1].content_store 	p_hit[1] 	0
scalar one_cache_scenario_3_links_network.node[1].content_store 	hits[1] 	0
scalar one_cache_scenario_3_links_network.node[1].content_store 	misses[1] 	36112
scalar one_cache_scenario_3_links_network.node[1].content_store 	decision_yes[1] 	0
scalar one_cache_scenario_3_links_network.node[1].content_store 	decision_no[1] 	36112
scalar one_cache_scenario_3_links_network.node[2].core_layer 	interests[2] 	53366
scalar one_cache_scenario_3_links_network.node[2].core_layer 	data[2] 	53366
scalar one_cache_scenario_3_links_network.node[2].content_store 	p_hit[2] 	0
scalar one_cache_scenario_3_links_network.node[2].content_store 	hits[2] 	0
scalar one_cache_scenario_3_links_network.node[2].content_store 	misses[2] 	53366
scalar one_cache_scenario_3_links_network.node[2].content_store 	decision_yes[2] 	0
scalar one_cache_scenario_3_links_network.node[2].content_store 	decision_no[2] 	53366
scalar one_cache_scenario_3_links_network.node[3].core_layer 	interests[3] 	54047
scalar one_cache_scenario_3_links_network.node[3].core_layer 	data[3] 	54047
scalar one_cache_scenario_3_links_network.node[3].content_store 	p_hit[3] 	0
scalar one_cache_scenario_3_links_network.node[3].content_store 	hits[3] 	0
scalar one_cache_scenario_3_links_network.node[3].content_store 	misses[3] 	54047
scalar one_cache_scenario_3_links_network.node[3].content_store 	decision_yes[3] 	0
scalar one_cache_scenario_3_links_network.node[3].content_store 	decision_no[3] 	54047
scalar one_cache_scenario_3_links_network.node[4].core_layer 	interests[4] 	36112
scalar one_cache_scenario_3_links_network.node[4].core_layer 	repo_load[4] 	36112
scalar one_cache_scenario_3_links_network.node[4].core_layer 	data[4] 	0
scalar one_cache_scenario_3_links_network.node[4].content_store 	p_hit[4] 	0
scalar one_cache_scenario_3_links_network.node[4].content_store 	hits[4] 	0
scalar one_cache_scenario_3_links_network.node[4].content_store 	misses[4] 	36112
scalar one_cache_scenario_3_links_network.node[4].content_store 	decision_yes[4] 	0
scalar one_cache_scenario_3_links_network.node[4].content_store 	decision_no[4] 	36112
scalar one_cache_scenario_3_links_network.node[5].core_layer 	interests[5] 	53366
scalar one_cache_scenario_3_links_network.node[5].core_layer 	repo_load[5] 	53366
scalar one_cache_scenario_3_links_network.node[5].core_layer 	data[5] 	0
scalar one_cache_scenario_3_links_network.node[5].content_store 	p_hit[5] 	0
scalar one_cache_scenario_3_links_network.node[5].content_store 	hits[5] 	0
scalar one_cache_scenario_3_links_network.node[5].content_store 	misses[5] 	53366
scalar one_cache_scenario_3_links_network.node[5].content_store 	decision_yes[5] 	0
scalar one_cache_scenario_3_links_network.node[5].content_store 	decision_no[5] 	53366
scalar one_cache_scenario_3_links_network.node[6].core_layer 	interests[6] 	54047
scalar one_cache_scenario_3_links_network.node[6].core_layer 	repo_load[6] 	54047
scalar one_cache_scenario_3_links_network.node[6].core_layer 	data[6] 	0
scalar one_cache_scenario_3_links_network.node[6].content_store 	p_hit[6] 	0
scalar one_cache_scenario_3_links_network.node[6].content_store 	hits[6] 	0
scalar one_cache_scenario_3_links_network.node[6].content_store 	misses[6] 	54047
scalar one_cache_scenario_3_links_network.node[6].content_store 	decision_yes[6] 	0
scalar one_cache_scenario_3_links_network.node[6].content_store 	decision_no[6] 	54047
scalar one_cache_scenario_3_links_network.client[0] 	hdistance[0] 	1.5971889918875
scalar one_cache_scenario_3_links_network.client[0] 	downloads[0] 	179722
scalar one_cache_scenario_3_links_network.client[0] 	avg_time[0] 	0
scalar one_cache_scenario_3_links_network.client[0] 	interests_sent[0] 	179722
