version 2
run General-17-20140625-18:18:22-12198
attr D costprobprodcorr0.01
attr F nrr
attr R lru
attr a 1
attr configname General
attr csize 1e3
attr ctlg 1e5
attr datetime 20140625-18:18:22
attr experiment General
attr inifile omnetpp.ini
attr iterationvars "$net=abilene_cost, $rep=1, $priceratiovalue=10, $weights=0.333_0.333_0.334, $lambda=100, $a=1, $ctlg=1e5, $F=nrr, $ttl=1000, $D=costprobprodcorr0.01, $xi=1.25, $R=lru, $csize=1e3, $pricebits=0, $mytime=1800"
attr iterationvars2 "$net=abilene_cost, $rep=1, $priceratiovalue=10, $weights=0.333_0.333_0.334, $lambda=100, $a=1, $ctlg=1e5, $F=nrr, $ttl=1000, $D=costprobprodcorr0.01, $xi=1.25, $R=lru, $csize=1e3, $pricebits=0, $mytime=1800, $repetition=0"
attr lambda 100
attr measurement "$net=abilene_cost, $rep=1, $priceratiovalue=10, $weights=0.333_0.333_0.334, $lambda=100, $a=1, $ctlg=1e5, $F=nrr, $ttl=1000, $D=costprobprodcorr0.01, $xi=1.25, $R=lru, $csize=1e3, $pricebits=0, $mytime=1800"
attr mytime 1800
attr net abilene_cost
attr network "networks.${net=geant_cost, abilene_cost}_network"
attr pricebits 0
attr priceratiovalue 10
attr processid 12198
attr rep 1
attr repetition 0
attr replication #0
attr resultdir results
attr runnumber 17
attr seedset 1
attr ttl 1000
attr weights 0.333_0.333_0.334
attr xi 1.25

scalar . 	a 	1
scalar . 	csize 	1e3
scalar . 	ctlg 	1e5
scalar . 	lambda 	100
scalar . 	mytime 	1800
scalar . 	pricebits 	0
scalar . 	priceratiovalue 	10
scalar . 	rep 	1
scalar . 	ttl 	1000
scalar . 	xi 	1.25
scalar abilene_cost_network.content_distribution 	repo-0 	11
scalar abilene_cost_network.content_distribution 	repo-1 	12
scalar abilene_cost_network.content_distribution 	repo-2 	13
scalar abilene_cost_network.content_distribution 	client-0 	5
scalar abilene_cost_network.content_distribution 	client-1 	0
scalar abilene_cost_network.content_distribution 	client-2 	9
scalar abilene_cost_network.content_distribution 	repo-0_card 	33396
scalar abilene_cost_network.content_distribution 	repo-1_card 	33039
scalar abilene_cost_network.content_distribution 	repo-2_card 	33565
scalar abilene_cost_network.statistics 	repo_popularity[0] 	0.28686251265602
scalar abilene_cost_network.statistics 	repo_popularity[1] 	0.2886063426465
scalar abilene_cost_network.statistics 	repo_popularity[2] 	0.42453114469748
scalar abilene_cost_network.statistics 	stabilization_time 	3805.7
scalar abilene_cost_network.node[1].face$o[4].channel 	price[1] 	0
scalar abilene_cost_network.node[1].face$o[4].channel 	represented_price[1] 	0
scalar abilene_cost_network.node[7].face$o[4].channel 	price[7] 	0
scalar abilene_cost_network.node[7].face$o[4].channel 	represented_price[7] 	0
scalar abilene_cost_network.node[10].face$o[4].channel 	price[10] 	0
scalar abilene_cost_network.node[10].face$o[4].channel 	represented_price[10] 	0
scalar abilene_cost_network.node[11].face$o[1].channel 	price[11] 	0
scalar abilene_cost_network.node[11].face$o[1].channel 	represented_price[11] 	0
scalar abilene_cost_network.node[12].face$o[1].channel 	price[12] 	1
scalar abilene_cost_network.node[12].face$o[1].channel 	represented_price[12] 	1
scalar abilene_cost_network.node[13].face$o[1].channel 	price[13] 	10
scalar abilene_cost_network.node[13].face$o[1].channel 	represented_price[13] 	10
scalar abilene_cost_network.statistics 	p_hit 	0.10875419853698
scalar abilene_cost_network.statistics 	interests 	150647.71428571
scalar abilene_cost_network.statistics 	data 	111982.92857143
scalar abilene_cost_network.statistics 	hdistance 	3.5167537627083
scalar abilene_cost_network.statistics 	avg_time 	0.015504561813
scalar abilene_cost_network.statistics 	downloads 	531868
scalar abilene_cost_network.statistics 	total_cost 	791611
scalar abilene_cost_network.statistics 	total_replicas 	100000
scalar abilene_cost_network.statistics 	inner_hit 	0.43284047921665
scalar abilene_cost_network.statistics 	interests_sent 	541308
scalar abilene_cost_network.node[0].core_layer 	interests[0] 	200729
scalar abilene_cost_network.node[0].core_layer 	data[0] 	164108
scalar abilene_cost_network.node[0].core_layer 	repo_int[0] 	301654
scalar abilene_cost_network.node[0].content_store 	p_hit[0] 	0.16697138928605
scalar abilene_cost_network.node[0].content_store 	hits[0] 	33516
scalar abilene_cost_network.node[0].content_store 	misses[0] 	167213
scalar abilene_cost_network.node[0].content_store 	decision_yes[0] 	775
scalar abilene_cost_network.node[0].content_store 	decision_no[0] 	163333
scalar abilene_cost_network.node[0].content_store 	decision_ratio[0] 	0.0047224998171936
scalar abilene_cost_network.node[0].content_store 	correction_factor[0] 	0.0015942725492031
scalar abilene_cost_network.node[0].content_store 	xi[0] 	1.25
scalar abilene_cost_network.node[1].core_layer 	interests[1] 	232121
scalar abilene_cost_network.node[1].core_layer 	data[1] 	206806
scalar abilene_cost_network.node[1].content_store 	p_hit[1] 	0.10905949914053
scalar abilene_cost_network.node[1].content_store 	hits[1] 	25315
scalar abilene_cost_network.node[1].content_store 	misses[1] 	206806
scalar abilene_cost_network.node[1].content_store 	decision_yes[1] 	2093
scalar abilene_cost_network.node[1].content_store 	decision_no[1] 	204713
scalar abilene_cost_network.node[1].content_store 	decision_ratio[1] 	0.010120596114233
scalar abilene_cost_network.node[1].content_store 	correction_factor[1] 	0.0015942725492031
scalar abilene_cost_network.node[1].content_store 	xi[1] 	1.25
scalar abilene_cost_network.node[2].core_layer 	interests[2] 	193139
scalar abilene_cost_network.node[2].core_layer 	data[2] 	180301
scalar abilene_cost_network.node[2].content_store 	p_hit[2] 	0.062110707832183
scalar abilene_cost_network.node[2].content_store 	hits[2] 	11996
scalar abilene_cost_network.node[2].content_store 	misses[2] 	181143
scalar abilene_cost_network.node[2].content_store 	decision_yes[2] 	718
scalar abilene_cost_network.node[2].content_store 	decision_no[2] 	179583
scalar abilene_cost_network.node[2].content_store 	decision_ratio[2] 	0.003982229715864
scalar abilene_cost_network.node[2].content_store 	correction_factor[2] 	0.0015942725492031
scalar abilene_cost_network.node[2].content_store 	xi[2] 	1.25
scalar abilene_cost_network.node[3].core_layer 	interests[3] 	199317
scalar abilene_cost_network.node[3].core_layer 	data[3] 	143744
scalar abilene_cost_network.node[3].content_store 	p_hit[3] 	0.27882217773697
scalar abilene_cost_network.node[3].content_store 	hits[3] 	55574
scalar abilene_cost_network.node[3].content_store 	misses[3] 	143743
scalar abilene_cost_network.node[3].content_store 	decision_yes[3] 	755
scalar abilene_cost_network.node[3].content_store 	decision_no[3] 	142989
scalar abilene_cost_network.node[3].content_store 	decision_ratio[3] 	0.005252393143366
scalar abilene_cost_network.node[3].content_store 	correction_factor[3] 	0.0015942725492031
scalar abilene_cost_network.node[3].content_store 	xi[3] 	1.25
scalar abilene_cost_network.node[4].core_layer 	interests[4] 	129133
scalar abilene_cost_network.node[4].core_layer 	data[4] 	124203
scalar abilene_cost_network.node[4].content_store 	p_hit[4] 	0.038185436720281
scalar abilene_cost_network.node[4].content_store 	hits[4] 	4931
scalar abilene_cost_network.node[4].content_store 	misses[4] 	124202
scalar abilene_cost_network.node[4].content_store 	decision_yes[4] 	623
scalar abilene_cost_network.node[4].content_store 	decision_no[4] 	123580
scalar abilene_cost_network.node[4].content_store 	decision_ratio[4] 	0.0050159819005982
scalar abilene_cost_network.node[4].content_store 	correction_factor[4] 	0.0015942725492031
scalar abilene_cost_network.node[4].content_store 	xi[4] 	1.25
scalar abilene_cost_network.node[5].core_layer 	interests[5] 	182991
scalar abilene_cost_network.node[5].core_layer 	data[5] 	172550
scalar abilene_cost_network.node[5].content_store 	p_hit[5] 	0.041668715947779
scalar abilene_cost_network.node[5].content_store 	hits[5] 	7625
scalar abilene_cost_network.node[5].content_store 	misses[5] 	175366
scalar abilene_cost_network.node[5].content_store 	decision_yes[5] 	727
scalar abilene_cost_network.node[5].content_store 	decision_no[5] 	171823
scalar abilene_cost_network.node[5].content_store 	decision_ratio[5] 	0.0042132715155028
scalar abilene_cost_network.node[5].content_store 	correction_factor[5] 	0.0015942725492031
scalar abilene_cost_network.node[5].content_store 	xi[5] 	1.25
scalar abilene_cost_network.node[6].core_layer 	interests[6] 	51899
scalar abilene_cost_network.node[6].core_layer 	data[6] 	44888
scalar abilene_cost_network.node[6].content_store 	p_hit[6] 	0.13508930807915
scalar abilene_cost_network.node[6].content_store 	hits[6] 	7011
scalar abilene_cost_network.node[6].content_store 	misses[6] 	44888
scalar abilene_cost_network.node[6].content_store 	decision_yes[6] 	44
scalar abilene_cost_network.node[6].content_store 	decision_no[6] 	44844
scalar abilene_cost_network.node[6].content_store 	decision_ratio[6] 	0.00098021743004812
scalar abilene_cost_network.node[6].content_store 	correction_factor[6] 	0.0015942725492031
scalar abilene_cost_network.node[6].content_store 	xi[6] 	1.25
scalar abilene_cost_network.node[7].core_layer 	interests[7] 	121544
scalar abilene_cost_network.node[7].core_layer 	data[7] 	88072
scalar abilene_cost_network.node[7].content_store 	p_hit[7] 	0.27536529980912
scalar abilene_cost_network.node[7].content_store 	hits[7] 	33469
scalar abilene_cost_network.node[7].content_store 	misses[7] 	88075
scalar abilene_cost_network.node[7].content_store 	decision_yes[7] 	140
scalar abilene_cost_network.node[7].content_store 	decision_no[7] 	87932
scalar abilene_cost_network.node[7].content_store 	decision_ratio[7] 	0.0015896085021346
scalar abilene_cost_network.node[7].content_store 	correction_factor[7] 	0.0015942725492031
scalar abilene_cost_network.node[7].content_store 	xi[7] 	1.25
scalar abilene_cost_network.node[8].core_layer 	interests[8] 	78679
scalar abilene_cost_network.node[8].core_layer 	data[8] 	66183
scalar abilene_cost_network.node[8].content_store 	p_hit[8] 	0.1588225574804
scalar abilene_cost_network.node[8].content_store 	hits[8] 	12496
scalar abilene_cost_network.node[8].content_store 	misses[8] 	66183
scalar abilene_cost_network.node[8].content_store 	decision_yes[8] 	40
scalar abilene_cost_network.node[8].content_store 	decision_no[8] 	66143
scalar abilene_cost_network.node[8].content_store 	decision_ratio[8] 	0.00060438481180968
scalar abilene_cost_network.node[8].content_store 	correction_factor[8] 	0.0015942725492031
scalar abilene_cost_network.node[8].content_store 	xi[8] 	1.25
scalar abilene_cost_network.node[9].core_layer 	interests[9] 	185707
scalar abilene_cost_network.node[9].core_layer 	data[9] 	174967
scalar abilene_cost_network.node[9].content_store 	p_hit[9] 	0.038883833134992
scalar abilene_cost_network.node[9].content_store 	hits[9] 	7221
scalar abilene_cost_network.node[9].content_store 	misses[9] 	178486
scalar abilene_cost_network.node[9].content_store 	decision_yes[9] 	673
scalar abilene_cost_network.node[9].content_store 	decision_no[9] 	174294
scalar abilene_cost_network.node[9].content_store 	decision_ratio[9] 	0.0038464396143273
scalar abilene_cost_network.node[9].content_store 	correction_factor[9] 	0.0015942725492031
scalar abilene_cost_network.node[9].content_store 	xi[9] 	1.25
scalar abilene_cost_network.node[10].core_layer 	interests[10] 	232155
scalar abilene_cost_network.node[10].core_layer 	data[10] 	201939
scalar abilene_cost_network.node[10].content_store 	p_hit[10] 	0.13015442269174
scalar abilene_cost_network.node[10].content_store 	hits[10] 	30216
scalar abilene_cost_network.node[10].content_store 	misses[10] 	201939
scalar abilene_cost_network.node[10].content_store 	decision_yes[10] 	645
scalar abilene_cost_network.node[10].content_store 	decision_no[10] 	201294
scalar abilene_cost_network.node[10].content_store 	decision_ratio[10] 	0.0031940338419028
scalar abilene_cost_network.node[10].content_store 	correction_factor[10] 	0.0015942725492031
scalar abilene_cost_network.node[10].content_store 	xi[10] 	1.25
scalar abilene_cost_network.node[11].core_layer 	interests[11] 	154902
scalar abilene_cost_network.node[11].core_layer 	repo_load[11] 	154902
scalar abilene_cost_network.node[11].core_layer 	data[11] 	0
scalar abilene_cost_network.node[11].content_store 	p_hit[11] 	0
scalar abilene_cost_network.node[11].content_store 	hits[11] 	0
scalar abilene_cost_network.node[11].content_store 	misses[11] 	154902
scalar abilene_cost_network.node[11].content_store 	decision_yes[11] 	0
scalar abilene_cost_network.node[11].content_store 	decision_no[11] 	154902
scalar abilene_cost_network.node[11].content_store 	decision_ratio[11] 	0
scalar abilene_cost_network.node[12].core_layer 	interests[12] 	75101
scalar abilene_cost_network.node[12].core_layer 	repo_load[12] 	75101
scalar abilene_cost_network.node[12].core_layer 	data[12] 	0
scalar abilene_cost_network.node[12].content_store 	p_hit[12] 	0
scalar abilene_cost_network.node[12].content_store 	hits[12] 	0
scalar abilene_cost_network.node[12].content_store 	misses[12] 	75101
scalar abilene_cost_network.node[12].content_store 	decision_yes[12] 	0
scalar abilene_cost_network.node[12].content_store 	decision_no[12] 	75101
scalar abilene_cost_network.node[12].content_store 	decision_ratio[12] 	0
scalar abilene_cost_network.node[13].core_layer 	interests[13] 	71651
scalar abilene_cost_network.node[13].core_layer 	repo_load[13] 	71651
scalar abilene_cost_network.node[13].core_layer 	data[13] 	0
scalar abilene_cost_network.node[13].content_store 	p_hit[13] 	0
scalar abilene_cost_network.node[13].content_store 	hits[13] 	0
scalar abilene_cost_network.node[13].content_store 	misses[13] 	71651
scalar abilene_cost_network.node[13].content_store 	decision_yes[13] 	0
scalar abilene_cost_network.node[13].content_store 	decision_no[13] 	71651
scalar abilene_cost_network.node[13].content_store 	decision_ratio[13] 	0
scalar abilene_cost_network.client[0] 	hdistance[0] 	3.0498335496248
scalar abilene_cost_network.client[0] 	downloads[0] 	177230
scalar abilene_cost_network.client[0] 	avg_time[0] 	0.014010774531
scalar abilene_cost_network.client[0] 	interests_sent[0] 	180335
scalar abilene_cost_network.client[5] 	hdistance[5] 	4.6255700288966
scalar abilene_cost_network.client[5] 	downloads[5] 	177184
scalar abilene_cost_network.client[5] 	avg_time[5] 	0.019187599069
scalar abilene_cost_network.client[5] 	interests_sent[5] 	180000
scalar abilene_cost_network.client[9] 	hdistance[9] 	2.8748577096036
scalar abilene_cost_network.client[9] 	downloads[9] 	177454
scalar abilene_cost_network.client[9] 	avg_time[9] 	0.01331531184
scalar abilene_cost_network.client[9] 	interests_sent[9] 	180973
