version 2
run General-38-20140513-17:25:17-2672
attr D fix0.01
attr F nrr
attr R lru
attr a 1
attr configname General
attr csize 1e6
attr ctlg 1e8
attr datetime 20140513-17:25:17
attr experiment General
attr inifile omnetpp.ini
attr iterationvars "$net=one_cache_scenario_3_links, $rep=20, $priceratiovalue=10, $weights=0.333_0.333_0.334, $a=1, $ctlg=1e8, $F=nrr, $ttl=1000, $D=fix0.01, $xi=1, $R=lru, $csize=1e6"
attr iterationvars2 "$net=one_cache_scenario_3_links, $rep=20, $priceratiovalue=10, $weights=0.333_0.333_0.334, $a=1, $ctlg=1e8, $F=nrr, $ttl=1000, $D=fix0.01, $xi=1, $R=lru, $csize=1e6, $repetition=0"
attr measurement "$net=one_cache_scenario_3_links, $rep=20, $priceratiovalue=10, $weights=0.333_0.333_0.334, $a=1, $ctlg=1e8, $F=nrr, $ttl=1000, $D=fix0.01, $xi=1, $R=lru, $csize=1e6"
attr net one_cache_scenario_3_links
attr network networks.${net=one_cache_scenario_3_links}_network
attr priceratiovalue 10
attr processid 2672
attr rep 20
attr repetition 0
attr replication #0
attr resultdir results
attr runnumber 38
attr seedset 20
attr ttl 1000
attr weights 0.333_0.333_0.334
attr xi 1

scalar . 	a 	1
scalar . 	csize 	1e6
scalar . 	ctlg 	1e8
scalar . 	priceratiovalue 	10
scalar . 	rep 	20
scalar . 	ttl 	1000
scalar . 	xi 	1
scalar one_cache_scenario_3_links_network.content_distribution 	repo-0 	4
scalar one_cache_scenario_3_links_network.content_distribution 	repo-1 	5
scalar one_cache_scenario_3_links_network.content_distribution 	repo-2 	6
scalar one_cache_scenario_3_links_network.content_distribution 	client-0 	0
scalar one_cache_scenario_3_links_network.content_distribution 	repo-0_card 	33308449
scalar one_cache_scenario_3_links_network.content_distribution 	repo-1_card 	33294092
scalar one_cache_scenario_3_links_network.content_distribution 	repo-2_card 	33397459
scalar one_cache_scenario_3_links_network.statistics 	p_hit 	0.22037415400332
scalar one_cache_scenario_3_links_network.statistics 	interests 	53698.285714286
scalar one_cache_scenario_3_links_network.statistics 	data 	27909.714285714
scalar one_cache_scenario_3_links_network.statistics 	hdistance 	1.0822512740971
scalar one_cache_scenario_3_links_network.statistics 	avg_time 	0
scalar one_cache_scenario_3_links_network.statistics 	downloads 	180520
scalar one_cache_scenario_3_links_network.statistics 	total_cost 	354708
scalar one_cache_scenario_3_links_network.statistics 	total_replicas 	100000000
scalar one_cache_scenario_3_links_network.statistics 	interests_sent 	180520
scalar one_cache_scenario_3_links_network.node[0].core_layer 	interests[0] 	180520
scalar one_cache_scenario_3_links_network.node[0].core_layer 	data[0] 	97684
scalar one_cache_scenario_3_links_network.node[0].core_layer 	repo_int[0] 	97684
scalar one_cache_scenario_3_links_network.node[0].content_store 	p_hit[0] 	0.45887436295147
scalar one_cache_scenario_3_links_network.node[0].content_store 	hits[0] 	82836
scalar one_cache_scenario_3_links_network.node[0].content_store 	misses[0] 	97684
scalar one_cache_scenario_3_links_network.node[0].content_store 	decision_yes[0] 	1054
scalar one_cache_scenario_3_links_network.node[0].content_store 	decision_no[0] 	96630
scalar one_cache_scenario_3_links_network.node[0].content_store 	decision_ratio[0] 	0.010789893943737
scalar one_cache_scenario_3_links_network.node[1].core_layer 	interests[1] 	33001
scalar one_cache_scenario_3_links_network.node[1].core_layer 	data[1] 	33001
scalar one_cache_scenario_3_links_network.node[1].content_store 	p_hit[1] 	0
scalar one_cache_scenario_3_links_network.node[1].content_store 	hits[1] 	0
scalar one_cache_scenario_3_links_network.node[1].content_store 	misses[1] 	33001
scalar one_cache_scenario_3_links_network.node[1].content_store 	decision_yes[1] 	0
scalar one_cache_scenario_3_links_network.node[1].content_store 	decision_no[1] 	33001
scalar one_cache_scenario_3_links_network.node[1].content_store 	decision_ratio[1] 	0
scalar one_cache_scenario_3_links_network.node[2].core_layer 	interests[2] 	32458
scalar one_cache_scenario_3_links_network.node[2].core_layer 	data[2] 	32458
scalar one_cache_scenario_3_links_network.node[2].content_store 	p_hit[2] 	0
scalar one_cache_scenario_3_links_network.node[2].content_store 	hits[2] 	0
scalar one_cache_scenario_3_links_network.node[2].content_store 	misses[2] 	32458
scalar one_cache_scenario_3_links_network.node[2].content_store 	decision_yes[2] 	0
scalar one_cache_scenario_3_links_network.node[2].content_store 	decision_no[2] 	32458
scalar one_cache_scenario_3_links_network.node[2].content_store 	decision_ratio[2] 	0
scalar one_cache_scenario_3_links_network.node[3].core_layer 	interests[3] 	32225
scalar one_cache_scenario_3_links_network.node[3].core_layer 	data[3] 	32225
scalar one_cache_scenario_3_links_network.node[3].content_store 	p_hit[3] 	0
scalar one_cache_scenario_3_links_network.node[3].content_store 	hits[3] 	0
scalar one_cache_scenario_3_links_network.node[3].content_store 	misses[3] 	32225
scalar one_cache_scenario_3_links_network.node[3].content_store 	decision_yes[3] 	0
scalar one_cache_scenario_3_links_network.node[3].content_store 	decision_no[3] 	32225
scalar one_cache_scenario_3_links_network.node[3].content_store 	decision_ratio[3] 	0
scalar one_cache_scenario_3_links_network.node[4].core_layer 	interests[4] 	33001
scalar one_cache_scenario_3_links_network.node[4].core_layer 	repo_load[4] 	33001
scalar one_cache_scenario_3_links_network.node[4].core_layer 	data[4] 	0
scalar one_cache_scenario_3_links_network.node[4].content_store 	p_hit[4] 	0
scalar one_cache_scenario_3_links_network.node[4].content_store 	hits[4] 	0
scalar one_cache_scenario_3_links_network.node[4].content_store 	misses[4] 	33001
scalar one_cache_scenario_3_links_network.node[4].content_store 	decision_yes[4] 	0
scalar one_cache_scenario_3_links_network.node[4].content_store 	decision_no[4] 	33001
scalar one_cache_scenario_3_links_network.node[4].content_store 	decision_ratio[4] 	0
scalar one_cache_scenario_3_links_network.node[5].core_layer 	interests[5] 	32458
scalar one_cache_scenario_3_links_network.node[5].core_layer 	repo_load[5] 	32458
scalar one_cache_scenario_3_links_network.node[5].core_layer 	data[5] 	0
scalar one_cache_scenario_3_links_network.node[5].content_store 	p_hit[5] 	0
scalar one_cache_scenario_3_links_network.node[5].content_store 	hits[5] 	0
scalar one_cache_scenario_3_links_network.node[5].content_store 	misses[5] 	32458
scalar one_cache_scenario_3_links_network.node[5].content_store 	decision_yes[5] 	0
scalar one_cache_scenario_3_links_network.node[5].content_store 	decision_no[5] 	32458
scalar one_cache_scenario_3_links_network.node[5].content_store 	decision_ratio[5] 	0
scalar one_cache_scenario_3_links_network.node[6].core_layer 	interests[6] 	32225
scalar one_cache_scenario_3_links_network.node[6].core_layer 	repo_load[6] 	32225
scalar one_cache_scenario_3_links_network.node[6].core_layer 	data[6] 	0
scalar one_cache_scenario_3_links_network.node[6].content_store 	p_hit[6] 	0
scalar one_cache_scenario_3_links_network.node[6].content_store 	hits[6] 	0
scalar one_cache_scenario_3_links_network.node[6].content_store 	misses[6] 	32225
scalar one_cache_scenario_3_links_network.node[6].content_store 	decision_yes[6] 	0
scalar one_cache_scenario_3_links_network.node[6].content_store 	decision_no[6] 	32225
scalar one_cache_scenario_3_links_network.node[6].content_store 	decision_ratio[6] 	0
scalar one_cache_scenario_3_links_network.client[0] 	hdistance[0] 	1.0822512740971
scalar one_cache_scenario_3_links_network.client[0] 	downloads[0] 	180520
scalar one_cache_scenario_3_links_network.client[0] 	avg_time[0] 	0
scalar one_cache_scenario_3_links_network.client[0] 	interests_sent[0] 	180520
