version 2
run General-0-20150803-13:05:42-12735
attr C 1e4
attr D lce
attr F spr
attr R lru_repr
attr a 1
attr brates 0.3_0.7_1.5_2.5_3.5
attr configname General
attr ctlg 1e6
attr datetime 20150803-13:05:42
attr experiment General
attr inifile omnetpp.ini
attr iterationvars "$net=abilene_nodelay, $rep=0, $lambda=100, $a=1, $ctlg=1e6, $brates=0.3_0.7_1.5_2.5_3.5, $F=spr, $ttl=1000, $D=lce, $R=lru_repr, $proactiveprob=1, $C=1e4, $window=60, $variance=0.05, $mytime=1800001"
attr iterationvars2 "$net=abilene_nodelay, $rep=0, $lambda=100, $a=1, $ctlg=1e6, $brates=0.3_0.7_1.5_2.5_3.5, $F=spr, $ttl=1000, $D=lce, $R=lru_repr, $proactiveprob=1, $C=1e4, $window=60, $variance=0.05, $mytime=1800001, $repetition=0"
attr lambda 100
attr measurement "$net=abilene_nodelay, $rep=0, $lambda=100, $a=1, $ctlg=1e6, $brates=0.3_0.7_1.5_2.5_3.5, $F=spr, $ttl=1000, $D=lce, $R=lru_repr, $proactiveprob=1, $C=1e4, $window=60, $variance=0.05, $mytime=1800001"
attr mytime 1800001
attr net abilene_nodelay
attr network networks.${net=abilene_nodelay}_network
attr proactiveprob 1
attr processid 12735
attr rep 0
attr repetition 0
attr replication #0
attr resultdir results
attr runnumber 0
attr seedset 0
attr ttl 1000
attr variance 0.05
attr window 60

scalar . 	C 	1e4
scalar . 	a 	1
scalar . 	ctlg 	1e6
scalar . 	lambda 	100
scalar . 	mytime 	1800001
scalar . 	proactiveprob 	1
scalar . 	rep 	0
scalar . 	ttl 	1000
scalar . 	variance 	0.05
scalar . 	window 	60
scalar abilene_nodelay_network.content_distribution 	repo-0 	5
scalar abilene_nodelay_network.content_distribution 	repo-1 	8
scalar abilene_nodelay_network.content_distribution 	repo-2 	9
scalar abilene_nodelay_network.content_distribution 	repo-3 	0
scalar abilene_nodelay_network.content_distribution 	repo-4 	1
scalar abilene_nodelay_network.content_distribution 	repo-5 	7
scalar abilene_nodelay_network.content_distribution 	repo-6 	6
scalar abilene_nodelay_network.content_distribution 	repo-7 	2
scalar abilene_nodelay_network.content_distribution 	repo-8 	4
scalar abilene_nodelay_network.content_distribution 	repo-9 	10
scalar abilene_nodelay_network.content_distribution 	repo-10 	3
scalar abilene_nodelay_network.content_distribution 	client-0 	10
scalar abilene_nodelay_network.content_distribution 	client-1 	9
scalar abilene_nodelay_network.content_distribution 	client-2 	8
scalar abilene_nodelay_network.content_distribution 	client-3 	7
scalar abilene_nodelay_network.content_distribution 	client-4 	3
scalar abilene_nodelay_network.content_distribution 	client-5 	6
scalar abilene_nodelay_network.content_distribution 	client-6 	5
scalar abilene_nodelay_network.content_distribution 	client-7 	1
scalar abilene_nodelay_network.content_distribution 	client-8 	4
scalar abilene_nodelay_network.content_distribution 	client-9 	0
scalar abilene_nodelay_network.content_distribution 	client-10 	2
scalar abilene_nodelay_network.content_distribution 	repo-0_card 	90891
scalar abilene_nodelay_network.content_distribution 	repo-0_price 	0
scalar abilene_nodelay_network.content_distribution 	repo-1_card 	90362
scalar abilene_nodelay_network.content_distribution 	repo-1_price 	0
scalar abilene_nodelay_network.content_distribution 	repo-2_card 	90927
scalar abilene_nodelay_network.content_distribution 	repo-2_price 	0
scalar abilene_nodelay_network.content_distribution 	repo-3_card 	91098
scalar abilene_nodelay_network.content_distribution 	repo-3_price 	0
scalar abilene_nodelay_network.content_distribution 	repo-4_card 	91231
scalar abilene_nodelay_network.content_distribution 	repo-4_price 	0
scalar abilene_nodelay_network.content_distribution 	repo-5_card 	90932
scalar abilene_nodelay_network.content_distribution 	repo-5_price 	0
scalar abilene_nodelay_network.content_distribution 	repo-6_card 	90752
scalar abilene_nodelay_network.content_distribution 	repo-6_price 	0
scalar abilene_nodelay_network.content_distribution 	repo-7_card 	90980
scalar abilene_nodelay_network.content_distribution 	repo-7_price 	0
scalar abilene_nodelay_network.content_distribution 	repo-8_card 	90629
scalar abilene_nodelay_network.content_distribution 	repo-8_price 	0
scalar abilene_nodelay_network.content_distribution 	repo-9_card 	91219
scalar abilene_nodelay_network.content_distribution 	repo-9_price 	0
scalar abilene_nodelay_network.content_distribution 	repo-10_card 	90979
scalar abilene_nodelay_network.content_distribution 	repo-10_price 	0
scalar abilene_nodelay_network.statistics 	stabilization_time 	36060
scalar abilene_nodelay_network.statistics 	p_hit 	0.35829897574081
scalar abilene_nodelay_network.statistics 	interests 	367785673.45455
scalar abilene_nodelay_network.statistics 	data 	155742975
scalar abilene_nodelay_network.statistics 	hdistance 	0.93583019841942
scalar abilene_nodelay_network.statistics 	avg_time 	0
scalar abilene_nodelay_network.statistics 	downloads 	1979990700
scalar abilene_nodelay_network.statistics 	total_cost 	0
scalar abilene_nodelay_network.statistics 	total_replicas 	1000000
scalar abilene_nodelay_network.statistics 	"representations_downloaded 0.388627:0.0329531:0.0235922:0.0199444:0.534883:" 	0
scalar abilene_nodelay_network.statistics 	"slots_per_representation 100:233:500:833:1167:" 	0
scalar abilene_nodelay_network.statistics 	inner_hit 	0.554078636834
scalar abilene_nodelay_network.statistics 	execution_time 	76617
scalar abilene_nodelay_network.node[0].core_layer 	interests[0] 	256317562
scalar abilene_nodelay_network.node[0].core_layer 	repo_load[0] 	73968594
scalar abilene_nodelay_network.node[0].core_layer 	data[0] 	66343447
scalar abilene_nodelay_network.node[0].core_layer 	slots_sent[face$o[1]->client[0]] 	132123881933
scalar abilene_nodelay_network.node[0].core_layer 	slots_sent[face$o[2]->node[1]] 	12497251210
scalar abilene_nodelay_network.node[0].core_layer 	slots_sent[face$o[3]->node[10]] 	3513400337
scalar abilene_nodelay_network.node[0].content_store 	p_hit[0] 	0.45258514514117
scalar abilene_nodelay_network.node[0].content_store 	hits[0] 	116005521
scalar abilene_nodelay_network.node[0].content_store 	misses[0] 	140312041
scalar abilene_nodelay_network.node[0].content_store 	decision_yes[0] 	66343447
scalar abilene_nodelay_network.node[0].content_store 	decision_no[0] 	73968594
scalar abilene_nodelay_network.node[0].content_store 	decision_ratio[0] 	0.47282789507709
scalar abilene_nodelay_network.node[0].content_store 	"representation_breakdown[0] 30950:4486:1934:1256:4727:" 	0
scalar abilene_nodelay_network.node[0].proactive_component 	hdistance[0].proactive_component 	2.6028817041907
scalar abilene_nodelay_network.node[0].proactive_component 	downloads[0].proactive_component 	16116505
scalar abilene_nodelay_network.node[0].proactive_component 	avg_time[0].proactive_component 	0
scalar abilene_nodelay_network.node[1].core_layer 	interests[1] 	424163843
scalar abilene_nodelay_network.node[1].core_layer 	repo_load[1] 	83957021
scalar abilene_nodelay_network.node[1].core_layer 	data[1] 	203999236
scalar abilene_nodelay_network.node[1].core_layer 	slots_sent[face$o[1]->client[1]] 	120939240587
scalar abilene_nodelay_network.node[1].core_layer 	slots_sent[face$o[2]->node[0]] 	14756277651
scalar abilene_nodelay_network.node[1].core_layer 	slots_sent[face$o[3]->node[10]] 	11304415981
scalar abilene_nodelay_network.node[1].core_layer 	slots_sent[face$o[4]->node[2]] 	29559979528
scalar abilene_nodelay_network.node[1].content_store 	p_hit[1] 	0.32112021863212
scalar abilene_nodelay_network.node[1].content_store 	hits[1] 	136207586
scalar abilene_nodelay_network.node[1].content_store 	misses[1] 	287956257
scalar abilene_nodelay_network.node[1].content_store 	decision_yes[1] 	203999236
scalar abilene_nodelay_network.node[1].content_store 	decision_no[1] 	83957021
scalar abilene_nodelay_network.node[1].content_store 	decision_ratio[1] 	0.7084382819992
scalar abilene_nodelay_network.node[1].content_store 	"representation_breakdown[1] 31472:5433:2388:1554:4086:" 	0
scalar abilene_nodelay_network.node[1].proactive_component 	hdistance[1].proactive_component 	2.1361702961204
scalar abilene_nodelay_network.node[1].proactive_component 	downloads[1].proactive_component 	39870597
scalar abilene_nodelay_network.node[1].proactive_component 	avg_time[1].proactive_component 	0
scalar abilene_nodelay_network.node[2].core_layer 	interests[2] 	548833875
scalar abilene_nodelay_network.node[2].core_layer 	repo_load[2] 	89473560
scalar abilene_nodelay_network.node[2].core_layer 	data[2] 	306343878
scalar abilene_nodelay_network.node[2].core_layer 	slots_sent[face$o[1]->client[2]] 	117356265183
scalar abilene_nodelay_network.node[2].core_layer 	slots_sent[face$o[2]->node[1]] 	32300222261
scalar abilene_nodelay_network.node[2].core_layer 	slots_sent[face$o[3]->node[3]] 	38118034436
scalar abilene_nodelay_network.node[2].core_layer 	slots_sent[face$o[4]->node[8]] 	15613918917
scalar abilene_nodelay_network.node[2].content_store 	p_hit[2] 	0.27880282899812
scalar abilene_nodelay_network.node[2].content_store 	hits[2] 	153016437
scalar abilene_nodelay_network.node[2].content_store 	misses[2] 	395817438
scalar abilene_nodelay_network.node[2].content_store 	decision_yes[2] 	306343878
scalar abilene_nodelay_network.node[2].content_store 	decision_no[2] 	89473560
scalar abilene_nodelay_network.node[2].content_store 	decision_ratio[2] 	0.77395245532361
scalar abilene_nodelay_network.node[2].content_store 	"representation_breakdown[2] 31747:5628:2500:1570:3964:" 	0
scalar abilene_nodelay_network.node[2].proactive_component 	hdistance[2].proactive_component 	2.0307358937257
scalar abilene_nodelay_network.node[2].proactive_component 	downloads[2].proactive_component 	54929426
scalar abilene_nodelay_network.node[2].proactive_component 	avg_time[2].proactive_component 	0
scalar abilene_nodelay_network.node[3].core_layer 	interests[3] 	519665345
scalar abilene_nodelay_network.node[3].core_layer 	repo_load[3] 	81984886
scalar abilene_nodelay_network.node[3].core_layer 	data[3] 	281431914
scalar abilene_nodelay_network.node[3].core_layer 	slots_sent[face$o[1]->client[3]] 	124823559827
scalar abilene_nodelay_network.node[3].core_layer 	slots_sent[face$o[2]->node[2]] 	38545076484
scalar abilene_nodelay_network.node[3].core_layer 	slots_sent[face$o[3]->node[4]] 	23659541679
scalar abilene_nodelay_network.node[3].core_layer 	slots_sent[face$o[4]->node[7]] 	17016485135
scalar abilene_nodelay_network.node[3].content_store 	p_hit[3] 	0.30067147348454
scalar abilene_nodelay_network.node[3].content_store 	hits[3] 	156248545
scalar abilene_nodelay_network.node[3].content_store 	misses[3] 	363416800
scalar abilene_nodelay_network.node[3].content_store 	decision_yes[3] 	281431914
scalar abilene_nodelay_network.node[3].content_store 	decision_no[3] 	81984886
scalar abilene_nodelay_network.node[3].content_store 	decision_ratio[3] 	0.77440534945
scalar abilene_nodelay_network.node[3].content_store 	"representation_breakdown[3] 31802:5464:2499:1614:3961:" 	0
scalar abilene_nodelay_network.node[3].proactive_component 	hdistance[3].proactive_component 	2.0379796127714
scalar abilene_nodelay_network.node[3].proactive_component 	downloads[3].proactive_component 	51940261
scalar abilene_nodelay_network.node[3].proactive_component 	avg_time[3].proactive_component 	0
scalar abilene_nodelay_network.node[4].core_layer 	interests[4] 	333533299
scalar abilene_nodelay_network.node[4].core_layer 	repo_load[4] 	76074285
scalar abilene_nodelay_network.node[4].core_layer 	data[4] 	127997521
scalar abilene_nodelay_network.node[4].core_layer 	slots_sent[face$o[1]->client[4]] 	129397301990
scalar abilene_nodelay_network.node[4].core_layer 	slots_sent[face$o[2]->node[3]] 	21679476083
scalar abilene_nodelay_network.node[4].core_layer 	slots_sent[face$o[3]->node[5]] 	12685289816
scalar abilene_nodelay_network.node[4].content_store 	p_hit[4] 	0.38815162800282
scalar abilene_nodelay_network.node[4].content_store 	hits[4] 	129461493
scalar abilene_nodelay_network.node[4].content_store 	misses[4] 	204071806
scalar abilene_nodelay_network.node[4].content_store 	decision_yes[4] 	127997521
scalar abilene_nodelay_network.node[4].content_store 	decision_no[4] 	76074285
scalar abilene_nodelay_network.node[4].content_store 	decision_ratio[4] 	0.62721805382562
scalar abilene_nodelay_network.node[4].content_store 	"representation_breakdown[4] 30569:5013:2061:1445:4465:" 	0
scalar abilene_nodelay_network.node[4].proactive_component 	hdistance[4].proactive_component 	2.2367833071439
scalar abilene_nodelay_network.node[4].proactive_component 	downloads[4].proactive_component 	28314099
scalar abilene_nodelay_network.node[4].proactive_component 	avg_time[4].proactive_component 	0
scalar abilene_nodelay_network.node[5].core_layer 	interests[5] 	272627755
scalar abilene_nodelay_network.node[5].core_layer 	repo_load[5] 	85351407
scalar abilene_nodelay_network.node[5].core_layer 	data[5] 	79334094
scalar abilene_nodelay_network.node[5].core_layer 	slots_sent[face$o[1]->client[5]] 	118659687882
scalar abilene_nodelay_network.node[5].core_layer 	slots_sent[face$o[2]->node[4]] 	11753288667
scalar abilene_nodelay_network.node[5].core_layer 	slots_sent[face$o[3]->node[6]] 	8487157935
scalar abilene_nodelay_network.node[5].content_store 	p_hit[5] 	0.39593273986355
scalar abilene_nodelay_network.node[5].content_store 	hits[5] 	107942254
scalar abilene_nodelay_network.node[5].content_store 	misses[5] 	164685501
scalar abilene_nodelay_network.node[5].content_store 	decision_yes[5] 	79334094
scalar abilene_nodelay_network.node[5].content_store 	decision_no[5] 	85351407
scalar abilene_nodelay_network.node[5].content_store 	decision_ratio[5] 	0.48173089627362
scalar abilene_nodelay_network.node[5].content_store 	"representation_breakdown[5] 31243:4697:1911:1258:4668:" 	0
scalar abilene_nodelay_network.node[5].proactive_component 	hdistance[5].proactive_component 	2.2802268197174
scalar abilene_nodelay_network.node[5].proactive_component 	downloads[5].proactive_component 	19534986
scalar abilene_nodelay_network.node[5].proactive_component 	avg_time[5].proactive_component 	0
scalar abilene_nodelay_network.node[6].core_layer 	interests[6] 	302823025
scalar abilene_nodelay_network.node[6].core_layer 	repo_load[6] 	73980172
scalar abilene_nodelay_network.node[6].core_layer 	data[6] 	104019220
scalar abilene_nodelay_network.node[6].core_layer 	slots_sent[face$o[1]->client[6]] 	129919642840
scalar abilene_nodelay_network.node[6].core_layer 	slots_sent[face$o[2]->node[5]] 	9096391749
scalar abilene_nodelay_network.node[6].core_layer 	slots_sent[face$o[3]->node[7]] 	18139579335
scalar abilene_nodelay_network.node[6].content_store 	p_hit[6] 	0.41219994087306
scalar abilene_nodelay_network.node[6].content_store 	hits[6] 	124823633
scalar abilene_nodelay_network.node[6].content_store 	misses[6] 	177999392
scalar abilene_nodelay_network.node[6].content_store 	decision_yes[6] 	104019220
scalar abilene_nodelay_network.node[6].content_store 	decision_no[6] 	73980172
scalar abilene_nodelay_network.node[6].content_store 	decision_ratio[6] 	0.58437963653269
scalar abilene_nodelay_network.node[6].content_store 	"representation_breakdown[6] 31622:4923:2053:1316:4488:" 	0
scalar abilene_nodelay_network.node[6].proactive_component 	hdistance[6].proactive_component 	2.1845993072097
scalar abilene_nodelay_network.node[6].proactive_component 	downloads[6].proactive_component 	24512183
scalar abilene_nodelay_network.node[6].proactive_component 	avg_time[6].proactive_component 	0
scalar abilene_nodelay_network.node[7].core_layer 	interests[7] 	401731810
scalar abilene_nodelay_network.node[7].core_layer 	repo_load[7] 	81276153
scalar abilene_nodelay_network.node[7].core_layer 	data[7] 	178363738
scalar abilene_nodelay_network.node[7].core_layer 	slots_sent[face$o[1]->client[7]] 	128951610315
scalar abilene_nodelay_network.node[7].core_layer 	slots_sent[face$o[2]->node[3]] 	16315786652
scalar abilene_nodelay_network.node[7].core_layer 	slots_sent[face$o[3]->node[6]] 	20063761207
scalar abilene_nodelay_network.node[7].core_layer 	slots_sent[face$o[4]->node[8]] 	14477972733
scalar abilene_nodelay_network.node[7].content_store 	p_hit[7] 	0.35369845121301
scalar abilene_nodelay_network.node[7].content_store 	hits[7] 	142091919
scalar abilene_nodelay_network.node[7].content_store 	misses[7] 	259639891
scalar abilene_nodelay_network.node[7].content_store 	decision_yes[7] 	178363738
scalar abilene_nodelay_network.node[7].content_store 	decision_no[7] 	81276153
scalar abilene_nodelay_network.node[7].content_store 	decision_ratio[7] 	0.6869658484027
scalar abilene_nodelay_network.node[7].content_store 	"representation_breakdown[7] 30804:5211:2349:1511:4235:" 	0
scalar abilene_nodelay_network.node[7].proactive_component 	hdistance[7].proactive_component 	1.986002717478
scalar abilene_nodelay_network.node[7].proactive_component 	downloads[7].proactive_component 	38268571
scalar abilene_nodelay_network.node[7].proactive_component 	avg_time[7].proactive_component 	0
scalar abilene_nodelay_network.node[8].core_layer 	interests[8] 	386287560
scalar abilene_nodelay_network.node[8].core_layer 	repo_load[8] 	77749167
scalar abilene_nodelay_network.node[8].core_layer 	data[8] 	167594638
scalar abilene_nodelay_network.node[8].core_layer 	slots_sent[face$o[1]->client[8]] 	130052729181
scalar abilene_nodelay_network.node[8].core_layer 	slots_sent[face$o[2]->node[2]] 	14205426587
scalar abilene_nodelay_network.node[8].core_layer 	slots_sent[face$o[3]->node[7]] 	13983773305
scalar abilene_nodelay_network.node[8].core_layer 	slots_sent[face$o[4]->node[9]] 	18220203174
scalar abilene_nodelay_network.node[8].content_store 	p_hit[8] 	0.36486744486413
scalar abilene_nodelay_network.node[8].content_store 	hits[8] 	140943755
scalar abilene_nodelay_network.node[8].content_store 	misses[8] 	245343805
scalar abilene_nodelay_network.node[8].content_store 	decision_yes[8] 	167594638
scalar abilene_nodelay_network.node[8].content_store 	decision_no[8] 	77749167
scalar abilene_nodelay_network.node[8].content_store 	decision_ratio[8] 	0.68310116083836
scalar abilene_nodelay_network.node[8].content_store 	"representation_breakdown[8] 30343:5166:2343:1511:4286:" 	0
scalar abilene_nodelay_network.node[8].proactive_component 	hdistance[8].proactive_component 	1.9621703171329
scalar abilene_nodelay_network.node[8].proactive_component 	downloads[8].proactive_component 	36823835
scalar abilene_nodelay_network.node[8].proactive_component 	avg_time[8].proactive_component 	0
scalar abilene_nodelay_network.node[9].core_layer 	interests[9] 	303958253
scalar abilene_nodelay_network.node[9].core_layer 	repo_load[9] 	75960824
scalar abilene_nodelay_network.node[9].core_layer 	data[9] 	104546733
scalar abilene_nodelay_network.node[9].core_layer 	slots_sent[face$o[1]->client[9]] 	127600331686
scalar abilene_nodelay_network.node[9].core_layer 	slots_sent[face$o[2]->node[10]] 	10884882865
scalar abilene_nodelay_network.node[9].core_layer 	slots_sent[face$o[3]->node[8]] 	16551714038
scalar abilene_nodelay_network.node[9].content_store 	p_hit[9] 	0.40614358972513
scalar abilene_nodelay_network.node[9].content_store 	hits[9] 	123450696
scalar abilene_nodelay_network.node[9].content_store 	misses[9] 	180507557
scalar abilene_nodelay_network.node[9].content_store 	decision_yes[9] 	104546733
scalar abilene_nodelay_network.node[9].content_store 	decision_no[9] 	75960824
scalar abilene_nodelay_network.node[9].content_store 	decision_ratio[9] 	0.57918202837347
scalar abilene_nodelay_network.node[9].content_store 	"representation_breakdown[9] 31866:4845:2071:1416:4404:" 	0
scalar abilene_nodelay_network.node[9].proactive_component 	hdistance[9].proactive_component 	2.0972817173207
scalar abilene_nodelay_network.node[9].proactive_component 	downloads[9].proactive_component 	25002293
scalar abilene_nodelay_network.node[9].proactive_component 	avg_time[9].proactive_component 	0
scalar abilene_nodelay_network.node[10].core_layer 	interests[10] 	295700081
scalar abilene_nodelay_network.node[10].core_layer 	repo_load[10] 	83144083
scalar abilene_nodelay_network.node[10].core_layer 	data[10] 	93198306
scalar abilene_nodelay_network.node[10].core_layer 	slots_sent[face$o[1]->client[10]] 	124504143835
scalar abilene_nodelay_network.node[10].core_layer 	slots_sent[face$o[2]->node[0]] 	3720949868
scalar abilene_nodelay_network.node[10].core_layer 	slots_sent[face$o[3]->node[1]] 	10749468876
scalar abilene_nodelay_network.node[10].core_layer 	slots_sent[face$o[4]->node[9]] 	10305869513
scalar abilene_nodelay_network.node[10].content_store 	p_hit[10] 	0.40364443457829
scalar abilene_nodelay_network.node[10].content_store 	hits[10] 	119357692
scalar abilene_nodelay_network.node[10].content_store 	misses[10] 	176342389
scalar abilene_nodelay_network.node[10].content_store 	decision_yes[10] 	93198306
scalar abilene_nodelay_network.node[10].content_store 	decision_no[10] 	83144083
scalar abilene_nodelay_network.node[10].content_store 	decision_ratio[10] 	0.52850767491871
scalar abilene_nodelay_network.node[10].content_store 	"representation_breakdown[10] 31275:4706:2084:1303:4557:" 	0
scalar abilene_nodelay_network.node[10].proactive_component 	hdistance[10].proactive_component 	2.121321786803
scalar abilene_nodelay_network.node[10].proactive_component 	downloads[10].proactive_component 	24249478
scalar abilene_nodelay_network.node[10].proactive_component 	avg_time[10].proactive_component 	0
scalar abilene_nodelay_network.client[0] 	hdistance[0].real 	1.0144438478965
scalar abilene_nodelay_network.client[0] 	downloads[0].real 	179996703
scalar abilene_nodelay_network.client[0] 	avg_time[0].real 	0
scalar abilene_nodelay_network.client[1] 	hdistance[1].real 	0.95163529419861
scalar abilene_nodelay_network.client[1] 	downloads[1].real 	180004858
scalar abilene_nodelay_network.client[1] 	avg_time[1].real 	0
scalar abilene_nodelay_network.client[2] 	hdistance[2].real 	0.87204689054221
scalar abilene_nodelay_network.client[2] 	downloads[2].real 	180023339
scalar abilene_nodelay_network.client[2] 	avg_time[2].real 	0
scalar abilene_nodelay_network.client[3] 	hdistance[3].real 	0.85624310933014
scalar abilene_nodelay_network.client[3] 	downloads[3].real 	179995198
scalar abilene_nodelay_network.client[3] 	avg_time[3].real 	0
scalar abilene_nodelay_network.client[4] 	hdistance[4].real 	0.97097162589869
scalar abilene_nodelay_network.client[4] 	downloads[4].real 	180009014
scalar abilene_nodelay_network.client[4] 	avg_time[4].real 	0
scalar abilene_nodelay_network.client[5] 	hdistance[5].real 	1.0861570051812
scalar abilene_nodelay_network.client[5] 	downloads[5].real 	179992085
scalar abilene_nodelay_network.client[5] 	avg_time[5].real 	0
scalar abilene_nodelay_network.client[6] 	hdistance[6].real 	0.98059249035434
scalar abilene_nodelay_network.client[6] 	downloads[6].real 	179994964
scalar abilene_nodelay_network.client[6] 	avg_time[6].real 	0
scalar abilene_nodelay_network.client[7] 	hdistance[7].real 	0.84703429765398
scalar abilene_nodelay_network.client[7] 	downloads[7].real 	180002926
scalar abilene_nodelay_network.client[7] 	avg_time[7].real 	0
scalar abilene_nodelay_network.client[8] 	hdistance[8].real 	0.81609830714804
scalar abilene_nodelay_network.client[8] 	downloads[8].real 	179974787
scalar abilene_nodelay_network.client[8] 	avg_time[8].real 	0
scalar abilene_nodelay_network.client[9] 	hdistance[9].real 	0.9251039222788
scalar abilene_nodelay_network.client[9] 	downloads[9].real 	179991001
scalar abilene_nodelay_network.client[9] 	avg_time[9].real 	0
scalar abilene_nodelay_network.client[10] 	hdistance[10].real 	0.9738053921311
scalar abilene_nodelay_network.client[10] 	downloads[10].real 	180005825
scalar abilene_nodelay_network.client[10] 	avg_time[10].real 	0
