version 2
run General-33-20140424-23:23:46-10783
attr D prob_cache
attr F nrr
attr R lru
attr a 1.2
attr configname General
attr csize 9
attr ctlg 10^3
attr datetime 20140424-23:23:46
attr experiment General
attr inifile omnetpp.ini
attr iterationvars "$net=one_cache_scenario, $rep=1, $priceratiovalue=1, $a=1.2, $ctlg=10^3, $F=nrr, $ttl=1000, $D=prob_cache, $R=lru, $csize=9"
attr iterationvars2 "$net=one_cache_scenario, $rep=1, $priceratiovalue=1, $a=1.2, $ctlg=10^3, $F=nrr, $ttl=1000, $D=prob_cache, $R=lru, $csize=9, $repetition=0"
attr measurement "$net=one_cache_scenario, $rep=1, $priceratiovalue=1, $a=1.2, $ctlg=10^3, $F=nrr, $ttl=1000, $D=prob_cache, $R=lru, $csize=9"
attr net one_cache_scenario
attr network networks.${net=one_cache_scenario}_network
attr priceratiovalue 1
attr processid 10783
attr rep 1
attr repetition 0
attr replication #0
attr resultdir results
attr runnumber 33
attr seedset 1
attr ttl 1000

scalar . 	a 	1.2
scalar . 	csize 	9
scalar . 	priceratiovalue 	1
scalar . 	rep 	1
scalar . 	ttl 	1000
scalar one_cache_scenario_network.content_distribution 	repo-0 	3
scalar one_cache_scenario_network.content_distribution 	repo-1 	4
scalar one_cache_scenario_network.content_distribution 	client-0 	0
scalar one_cache_scenario_network.content_distribution 	repo-0_card 	504
scalar one_cache_scenario_network.content_distribution 	repo-1_card 	496
scalar one_cache_scenario_network.statistics 	p_hit 	0.22520273476254
scalar one_cache_scenario_network.statistics 	interests 	74185.6
scalar one_cache_scenario_network.statistics 	data 	38319.2
scalar one_cache_scenario_network.statistics 	hdistance 	1.0683871255548
scalar one_cache_scenario_network.statistics 	avg_time 	0
scalar one_cache_scenario_network.statistics 	downloads 	179332
scalar one_cache_scenario_network.statistics 	total_cost 	47898
scalar one_cache_scenario_network.statistics 	interests_sent 	179332
scalar one_cache_scenario_network.node[0].core_layer 	interests[0] 	179332
scalar one_cache_scenario_network.node[0].core_layer 	data[0] 	95798
scalar one_cache_scenario_network.node[0].core_layer 	repo_int[0] 	95798
scalar one_cache_scenario_network.node[0].content_store 	p_hit[0] 	0.46580643722258
scalar one_cache_scenario_network.node[0].content_store 	hits[0] 	83534
scalar one_cache_scenario_network.node[0].content_store 	misses[0] 	95798
scalar one_cache_scenario_network.node[0].content_store 	decision_yes[0] 	9687
scalar one_cache_scenario_network.node[0].content_store 	decision_no[0] 	86111
scalar one_cache_scenario_network.node[1].core_layer 	interests[1] 	46395
scalar one_cache_scenario_network.node[1].core_layer 	data[1] 	46395
scalar one_cache_scenario_network.node[1].content_store 	p_hit[1] 	0
scalar one_cache_scenario_network.node[1].content_store 	hits[1] 	0
scalar one_cache_scenario_network.node[1].content_store 	misses[1] 	46395
scalar one_cache_scenario_network.node[1].content_store 	decision_yes[1] 	0
scalar one_cache_scenario_network.node[1].content_store 	decision_no[1] 	46395
scalar one_cache_scenario_network.node[2].core_layer 	interests[2] 	49403
scalar one_cache_scenario_network.node[2].core_layer 	data[2] 	49403
scalar one_cache_scenario_network.node[2].content_store 	p_hit[2] 	0
scalar one_cache_scenario_network.node[2].content_store 	hits[2] 	0
scalar one_cache_scenario_network.node[2].content_store 	misses[2] 	49403
scalar one_cache_scenario_network.node[2].content_store 	decision_yes[2] 	0
scalar one_cache_scenario_network.node[2].content_store 	decision_no[2] 	49403
scalar one_cache_scenario_network.node[3].core_layer 	interests[3] 	46395
scalar one_cache_scenario_network.node[3].core_layer 	repo_load[3] 	46395
scalar one_cache_scenario_network.node[3].core_layer 	data[3] 	0
scalar one_cache_scenario_network.node[3].content_store 	p_hit[3] 	0
scalar one_cache_scenario_network.node[3].content_store 	hits[3] 	0
scalar one_cache_scenario_network.node[3].content_store 	misses[3] 	46395
scalar one_cache_scenario_network.node[3].content_store 	decision_yes[3] 	0
scalar one_cache_scenario_network.node[3].content_store 	decision_no[3] 	46395
scalar one_cache_scenario_network.node[4].core_layer 	interests[4] 	49403
scalar one_cache_scenario_network.node[4].core_layer 	repo_load[4] 	49403
scalar one_cache_scenario_network.node[4].core_layer 	data[4] 	0
scalar one_cache_scenario_network.node[4].content_store 	p_hit[4] 	0
scalar one_cache_scenario_network.node[4].content_store 	hits[4] 	0
scalar one_cache_scenario_network.node[4].content_store 	misses[4] 	49403
scalar one_cache_scenario_network.node[4].content_store 	decision_yes[4] 	0
scalar one_cache_scenario_network.node[4].content_store 	decision_no[4] 	49403
scalar one_cache_scenario_network.client[0] 	hdistance[0] 	1.0683871255548
scalar one_cache_scenario_network.client[0] 	downloads[0] 	179332
scalar one_cache_scenario_network.client[0] 	avg_time[0] 	0
scalar one_cache_scenario_network.client[0] 	interests_sent[0] 	179332
