version 2
run General-701-20140502-02:26:46-9598
attr D fix0.01
attr F nrr
attr R lru
attr a 1
attr configname General
attr csize 1e3
attr ctlg 1e5
attr datetime 20140502-02:26:46
attr experiment General
attr inifile omnetpp.ini
attr iterationvars "$net=three_caches_scenario_3_links, $rep=2, $priceratiovalue=1, $weights=0_0.5_0.5, $a=1, $ctlg=1e5, $F=nrr, $ttl=1000, $D=fix0.01, $xi=1, $R=lru, $csize=1e3"
attr iterationvars2 "$net=three_caches_scenario_3_links, $rep=2, $priceratiovalue=1, $weights=0_0.5_0.5, $a=1, $ctlg=1e5, $F=nrr, $ttl=1000, $D=fix0.01, $xi=1, $R=lru, $csize=1e3, $repetition=0"
attr measurement "$net=three_caches_scenario_3_links, $rep=2, $priceratiovalue=1, $weights=0_0.5_0.5, $a=1, $ctlg=1e5, $F=nrr, $ttl=1000, $D=fix0.01, $xi=1, $R=lru, $csize=1e3"
attr net three_caches_scenario_3_links
attr network networks.${net=three_caches_scenario_3_links}_network
attr priceratiovalue 1
attr processid 9598
attr rep 2
attr repetition 0
attr replication #0
attr resultdir results
attr runnumber 701
attr seedset 2
attr ttl 1000
attr weights 0_0.5_0.5
attr xi 1

scalar . 	a 	1
scalar . 	csize 	1e3
scalar . 	ctlg 	1e5
scalar . 	priceratiovalue 	1
scalar . 	rep 	2
scalar . 	ttl 	1000
scalar . 	xi 	1
scalar three_caches_scenario_3_links_network.content_distribution 	repo-0 	4
scalar three_caches_scenario_3_links_network.content_distribution 	repo-1 	5
scalar three_caches_scenario_3_links_network.content_distribution 	repo-2 	6
scalar three_caches_scenario_3_links_network.content_distribution 	client-0 	0
scalar three_caches_scenario_3_links_network.content_distribution 	repo-0_card 	0
scalar three_caches_scenario_3_links_network.content_distribution 	repo-1_card 	50028
scalar three_caches_scenario_3_links_network.content_distribution 	repo-2_card 	49972
scalar three_caches_scenario_3_links_network.statistics 	p_hit 	0.28212776393158
scalar three_caches_scenario_3_links_network.statistics 	interests 	50096.857142857
scalar three_caches_scenario_3_links_network.statistics 	data 	24454.571428571
scalar three_caches_scenario_3_links_network.statistics 	hdistance 	1.4024936488835
scalar three_caches_scenario_3_links_network.statistics 	avg_time 	0
scalar three_caches_scenario_3_links_network.statistics 	downloads 	179496
scalar three_caches_scenario_3_links_network.statistics 	total_cost 	80560
scalar three_caches_scenario_3_links_network.statistics 	total_replicas 	100000
scalar three_caches_scenario_3_links_network.statistics 	interests_sent 	179496
scalar three_caches_scenario_3_links_network.node[0].core_layer 	interests[0] 	179496
scalar three_caches_scenario_3_links_network.node[0].core_layer 	data[0] 	90622
scalar three_caches_scenario_3_links_network.node[0].core_layer 	repo_int[0] 	80560
scalar three_caches_scenario_3_links_network.node[0].content_store 	p_hit[0] 	0.49513081071444
scalar three_caches_scenario_3_links_network.node[0].content_store 	hits[0] 	88874
scalar three_caches_scenario_3_links_network.node[0].content_store 	misses[0] 	90622
scalar three_caches_scenario_3_links_network.node[0].content_store 	decision_yes[0] 	908
scalar three_caches_scenario_3_links_network.node[0].content_store 	decision_no[0] 	89714
scalar three_caches_scenario_3_links_network.node[1].core_layer 	interests[1] 	0
scalar three_caches_scenario_3_links_network.node[1].core_layer 	data[1] 	0
scalar three_caches_scenario_3_links_network.node[1].content_store 	p_hit[1] 	-nan
scalar three_caches_scenario_3_links_network.node[1].content_store 	hits[1] 	0
scalar three_caches_scenario_3_links_network.node[1].content_store 	misses[1] 	0
scalar three_caches_scenario_3_links_network.node[1].content_store 	decision_yes[1] 	0
scalar three_caches_scenario_3_links_network.node[1].content_store 	decision_no[1] 	0
scalar three_caches_scenario_3_links_network.node[2].core_layer 	interests[2] 	45701
scalar three_caches_scenario_3_links_network.node[2].core_layer 	data[2] 	40425
scalar three_caches_scenario_3_links_network.node[2].content_store 	p_hit[2] 	0.11544605150872
scalar three_caches_scenario_3_links_network.node[2].content_store 	hits[2] 	5276
scalar three_caches_scenario_3_links_network.node[2].content_store 	misses[2] 	40425
scalar three_caches_scenario_3_links_network.node[2].content_store 	decision_yes[2] 	430
scalar three_caches_scenario_3_links_network.node[2].content_store 	decision_no[2] 	39995
scalar three_caches_scenario_3_links_network.node[3].core_layer 	interests[3] 	44921
scalar three_caches_scenario_3_links_network.node[3].core_layer 	data[3] 	40135
scalar three_caches_scenario_3_links_network.node[3].content_store 	p_hit[3] 	0.10654259700363
scalar three_caches_scenario_3_links_network.node[3].content_store 	hits[3] 	4786
scalar three_caches_scenario_3_links_network.node[3].content_store 	misses[3] 	40135
scalar three_caches_scenario_3_links_network.node[3].content_store 	decision_yes[3] 	433
scalar three_caches_scenario_3_links_network.node[3].content_store 	decision_no[3] 	39702
scalar three_caches_scenario_3_links_network.node[4].core_layer 	interests[4] 	0
scalar three_caches_scenario_3_links_network.node[4].core_layer 	data[4] 	0
scalar three_caches_scenario_3_links_network.node[4].content_store 	p_hit[4] 	-nan
scalar three_caches_scenario_3_links_network.node[4].content_store 	hits[4] 	0
scalar three_caches_scenario_3_links_network.node[4].content_store 	misses[4] 	0
scalar three_caches_scenario_3_links_network.node[4].content_store 	decision_yes[4] 	0
scalar three_caches_scenario_3_links_network.node[4].content_store 	decision_no[4] 	0
scalar three_caches_scenario_3_links_network.node[5].core_layer 	interests[5] 	40425
scalar three_caches_scenario_3_links_network.node[5].core_layer 	repo_load[5] 	40425
scalar three_caches_scenario_3_links_network.node[5].core_layer 	data[5] 	0
scalar three_caches_scenario_3_links_network.node[5].content_store 	p_hit[5] 	0
scalar three_caches_scenario_3_links_network.node[5].content_store 	hits[5] 	0
scalar three_caches_scenario_3_links_network.node[5].content_store 	misses[5] 	40425
scalar three_caches_scenario_3_links_network.node[5].content_store 	decision_yes[5] 	0
scalar three_caches_scenario_3_links_network.node[5].content_store 	decision_no[5] 	40425
scalar three_caches_scenario_3_links_network.node[6].core_layer 	interests[6] 	40135
scalar three_caches_scenario_3_links_network.node[6].core_layer 	repo_load[6] 	40135
scalar three_caches_scenario_3_links_network.node[6].core_layer 	data[6] 	0
scalar three_caches_scenario_3_links_network.node[6].content_store 	p_hit[6] 	0
scalar three_caches_scenario_3_links_network.node[6].content_store 	hits[6] 	0
scalar three_caches_scenario_3_links_network.node[6].content_store 	misses[6] 	40135
scalar three_caches_scenario_3_links_network.node[6].content_store 	decision_yes[6] 	0
scalar three_caches_scenario_3_links_network.node[6].content_store 	decision_no[6] 	40135
scalar three_caches_scenario_3_links_network.client[0] 	hdistance[0] 	1.4024936488835
scalar three_caches_scenario_3_links_network.client[0] 	downloads[0] 	179496
scalar three_caches_scenario_3_links_network.client[0] 	avg_time[0] 	0
scalar three_caches_scenario_3_links_network.client[0] 	interests_sent[0] 	179496
