version 2
run General-1795-20140502-04:32:50-10727
attr D fix0.05
attr F nrr
attr R lru
attr a 1.2
attr configname General
attr csize 1e3
attr ctlg 1e5
attr datetime 20140502-04:32:50
attr experiment General
attr inifile omnetpp.ini
attr iterationvars "$net=three_caches_scenario_3_links, $rep=4, $priceratiovalue=1, $weights=0.2_0.4_0.4, $a=1.2, $ctlg=1e5, $F=nrr, $ttl=1000, $D=fix0.05, $xi=1, $R=lru, $csize=1e3"
attr iterationvars2 "$net=three_caches_scenario_3_links, $rep=4, $priceratiovalue=1, $weights=0.2_0.4_0.4, $a=1.2, $ctlg=1e5, $F=nrr, $ttl=1000, $D=fix0.05, $xi=1, $R=lru, $csize=1e3, $repetition=0"
attr measurement "$net=three_caches_scenario_3_links, $rep=4, $priceratiovalue=1, $weights=0.2_0.4_0.4, $a=1.2, $ctlg=1e5, $F=nrr, $ttl=1000, $D=fix0.05, $xi=1, $R=lru, $csize=1e3"
attr net three_caches_scenario_3_links
attr network networks.${net=three_caches_scenario_3_links}_network
attr priceratiovalue 1
attr processid 10727
attr rep 4
attr repetition 0
attr replication #0
attr resultdir results
attr runnumber 1795
attr seedset 4
attr ttl 1000
attr weights 0.2_0.4_0.4
attr xi 1

scalar . 	a 	1.2
scalar . 	csize 	1e3
scalar . 	ctlg 	1e5
scalar . 	priceratiovalue 	1
scalar . 	rep 	4
scalar . 	ttl 	1000
scalar . 	xi 	1
scalar three_caches_scenario_3_links_network.content_distribution 	repo-0 	4
scalar three_caches_scenario_3_links_network.content_distribution 	repo-1 	5
scalar three_caches_scenario_3_links_network.content_distribution 	repo-2 	6
scalar three_caches_scenario_3_links_network.content_distribution 	client-0 	0
scalar three_caches_scenario_3_links_network.content_distribution 	repo-0_card 	20142
scalar three_caches_scenario_3_links_network.content_distribution 	repo-1_card 	39937
scalar three_caches_scenario_3_links_network.content_distribution 	repo-2_card 	39921
scalar three_caches_scenario_3_links_network.statistics 	p_hit 	0.56656191417037
scalar three_caches_scenario_3_links_network.statistics 	interests 	36730.571428571
scalar three_caches_scenario_3_links_network.statistics 	data 	10981.285714286
scalar three_caches_scenario_3_links_network.statistics 	hdistance 	0.56967460955922
scalar three_caches_scenario_3_links_network.statistics 	avg_time 	0
scalar three_caches_scenario_3_links_network.statistics 	downloads 	180245
scalar three_caches_scenario_3_links_network.statistics 	total_cost 	25812
scalar three_caches_scenario_3_links_network.statistics 	total_replicas 	100000
scalar three_caches_scenario_3_links_network.statistics 	interests_sent 	180245
scalar three_caches_scenario_3_links_network.node[0].core_layer 	interests[0] 	180245
scalar three_caches_scenario_3_links_network.node[0].core_layer 	data[0] 	42295
scalar three_caches_scenario_3_links_network.node[0].core_layer 	repo_int[0] 	34574
scalar three_caches_scenario_3_links_network.node[0].content_store 	p_hit[0] 	0.7653471663569
scalar three_caches_scenario_3_links_network.node[0].content_store 	hits[0] 	137950
scalar three_caches_scenario_3_links_network.node[0].content_store 	misses[0] 	42295
scalar three_caches_scenario_3_links_network.node[0].content_store 	decision_yes[0] 	2169
scalar three_caches_scenario_3_links_network.node[0].content_store 	decision_no[0] 	40126
scalar three_caches_scenario_3_links_network.node[1].core_layer 	interests[1] 	8762
scalar three_caches_scenario_3_links_network.node[1].core_layer 	data[1] 	8762
scalar three_caches_scenario_3_links_network.node[1].content_store 	p_hit[1] 	0
scalar three_caches_scenario_3_links_network.node[1].content_store 	hits[1] 	0
scalar three_caches_scenario_3_links_network.node[1].content_store 	misses[1] 	8762
scalar three_caches_scenario_3_links_network.node[1].content_store 	decision_yes[1] 	0
scalar three_caches_scenario_3_links_network.node[1].content_store 	decision_no[1] 	8762
scalar three_caches_scenario_3_links_network.node[2].core_layer 	interests[2] 	16667
scalar three_caches_scenario_3_links_network.node[2].core_layer 	data[2] 	12880
scalar three_caches_scenario_3_links_network.node[2].content_store 	p_hit[2] 	0.22721545569089
scalar three_caches_scenario_3_links_network.node[2].content_store 	hits[2] 	3787
scalar three_caches_scenario_3_links_network.node[2].content_store 	misses[2] 	12880
scalar three_caches_scenario_3_links_network.node[2].content_store 	decision_yes[2] 	643
scalar three_caches_scenario_3_links_network.node[2].content_store 	decision_no[2] 	12237
scalar three_caches_scenario_3_links_network.node[3].core_layer 	interests[3] 	16866
scalar three_caches_scenario_3_links_network.node[3].core_layer 	data[3] 	12932
scalar three_caches_scenario_3_links_network.node[3].content_store 	p_hit[3] 	0.23325032609985
scalar three_caches_scenario_3_links_network.node[3].content_store 	hits[3] 	3934
scalar three_caches_scenario_3_links_network.node[3].content_store 	misses[3] 	12932
scalar three_caches_scenario_3_links_network.node[3].content_store 	decision_yes[3] 	623
scalar three_caches_scenario_3_links_network.node[3].content_store 	decision_no[3] 	12309
scalar three_caches_scenario_3_links_network.node[4].core_layer 	interests[4] 	8762
scalar three_caches_scenario_3_links_network.node[4].core_layer 	repo_load[4] 	8762
scalar three_caches_scenario_3_links_network.node[4].core_layer 	data[4] 	0
scalar three_caches_scenario_3_links_network.node[4].content_store 	p_hit[4] 	0
scalar three_caches_scenario_3_links_network.node[4].content_store 	hits[4] 	0
scalar three_caches_scenario_3_links_network.node[4].content_store 	misses[4] 	8762
scalar three_caches_scenario_3_links_network.node[4].content_store 	decision_yes[4] 	0
scalar three_caches_scenario_3_links_network.node[4].content_store 	decision_no[4] 	8762
scalar three_caches_scenario_3_links_network.node[5].core_layer 	interests[5] 	12880
scalar three_caches_scenario_3_links_network.node[5].core_layer 	repo_load[5] 	12880
scalar three_caches_scenario_3_links_network.node[5].core_layer 	data[5] 	0
scalar three_caches_scenario_3_links_network.node[5].content_store 	p_hit[5] 	0
scalar three_caches_scenario_3_links_network.node[5].content_store 	hits[5] 	0
scalar three_caches_scenario_3_links_network.node[5].content_store 	misses[5] 	12880
scalar three_caches_scenario_3_links_network.node[5].content_store 	decision_yes[5] 	0
scalar three_caches_scenario_3_links_network.node[5].content_store 	decision_no[5] 	12880
scalar three_caches_scenario_3_links_network.node[6].core_layer 	interests[6] 	12932
scalar three_caches_scenario_3_links_network.node[6].core_layer 	repo_load[6] 	12932
scalar three_caches_scenario_3_links_network.node[6].core_layer 	data[6] 	0
scalar three_caches_scenario_3_links_network.node[6].content_store 	p_hit[6] 	0
scalar three_caches_scenario_3_links_network.node[6].content_store 	hits[6] 	0
scalar three_caches_scenario_3_links_network.node[6].content_store 	misses[6] 	12932
scalar three_caches_scenario_3_links_network.node[6].content_store 	decision_yes[6] 	0
scalar three_caches_scenario_3_links_network.node[6].content_store 	decision_no[6] 	12932
scalar three_caches_scenario_3_links_network.client[0] 	hdistance[0] 	0.56967460955922
scalar three_caches_scenario_3_links_network.client[0] 	downloads[0] 	180245
scalar three_caches_scenario_3_links_network.client[0] 	avg_time[0] 	0
scalar three_caches_scenario_3_links_network.client[0] 	interests_sent[0] 	180245
