version 2
run General-562-20140424-12:56:27-13264
attr D prob_cache
attr F nrr
attr R lru
attr a 1.2
attr configname General
attr csize 10
attr ctlg 10^3
attr datetime 20140424-12:56:27
attr experiment General
attr inifile omnetpp.ini
attr iterationvars "$net=simple_scenario, $rep=3, $priceratiovalue=7, $a=1.2, $ctlg=10^3, $F=nrr, $ttl=1000, $D=prob_cache, $R=lru, $csize=10"
attr iterationvars2 "$net=simple_scenario, $rep=3, $priceratiovalue=7, $a=1.2, $ctlg=10^3, $F=nrr, $ttl=1000, $D=prob_cache, $R=lru, $csize=10, $repetition=0"
attr measurement "$net=simple_scenario, $rep=3, $priceratiovalue=7, $a=1.2, $ctlg=10^3, $F=nrr, $ttl=1000, $D=prob_cache, $R=lru, $csize=10"
attr net simple_scenario
attr network networks.${net=simple_scenario}_network
attr priceratiovalue 7
attr processid 13264
attr rep 3
attr repetition 0
attr replication #0
attr resultdir results
attr runnumber 562
attr seedset 3
attr ttl 1000

scalar . 	a 	1.2
scalar . 	csize 	10
scalar . 	priceratiovalue 	7
scalar . 	rep 	3
scalar . 	ttl 	1000
scalar simple_scenario_network.content_distribution 	repo-0 	3
scalar simple_scenario_network.content_distribution 	repo-1 	4
scalar simple_scenario_network.content_distribution 	client-0 	0
scalar simple_scenario_network.content_distribution 	repo-0_card 	524
scalar simple_scenario_network.content_distribution 	repo-1_card 	476
scalar simple_scenario_network.statistics 	p_hit 	0.30834348002551
scalar simple_scenario_network.statistics 	interests 	68988
scalar simple_scenario_network.statistics 	data 	33075.4
scalar simple_scenario_network.statistics 	hdistance 	1.3286701603337
scalar simple_scenario_network.statistics 	avg_time 	0.001985509647
scalar simple_scenario_network.statistics 	downloads 	179563
scalar simple_scenario_network.statistics 	total_cost 	35246
scalar simple_scenario_network.node[0].core_layer 	interests[0] 	179563
scalar simple_scenario_network.node[0].core_layer 	data[0] 	92174
scalar simple_scenario_network.node[0].core_layer 	repo_int[0] 	73203
scalar simple_scenario_network.node[0].content_store 	p_hit[0] 	0.48667598558723
scalar simple_scenario_network.node[0].content_store 	hits[0] 	87389
scalar simple_scenario_network.node[0].content_store 	misses[0] 	92174
scalar simple_scenario_network.node[1].core_layer 	interests[1] 	47352
scalar simple_scenario_network.node[1].core_layer 	data[1] 	38408
scalar simple_scenario_network.node[1].content_store 	p_hit[1] 	0.18888325730698
scalar simple_scenario_network.node[1].content_store 	hits[1] 	8944
scalar simple_scenario_network.node[1].content_store 	misses[1] 	38408
scalar simple_scenario_network.node[2].core_layer 	interests[2] 	44822
scalar simple_scenario_network.node[2].core_layer 	data[2] 	34795
scalar simple_scenario_network.node[2].content_store 	p_hit[2] 	0.22370710811655
scalar simple_scenario_network.node[2].content_store 	hits[2] 	10027
scalar simple_scenario_network.node[2].content_store 	misses[2] 	34795
scalar simple_scenario_network.node[3].core_layer 	interests[3] 	38408
scalar simple_scenario_network.node[3].core_layer 	repo_load[3] 	38408
scalar simple_scenario_network.node[3].core_layer 	data[3] 	0
scalar simple_scenario_network.node[3].content_store 	p_hit[3] 	0
scalar simple_scenario_network.node[3].content_store 	hits[3] 	0
scalar simple_scenario_network.node[3].content_store 	misses[3] 	38408
scalar simple_scenario_network.node[4].core_layer 	interests[4] 	34795
scalar simple_scenario_network.node[4].core_layer 	repo_load[4] 	34795
scalar simple_scenario_network.node[4].core_layer 	data[4] 	0
scalar simple_scenario_network.node[4].content_store 	p_hit[4] 	0
scalar simple_scenario_network.node[4].content_store 	hits[4] 	0
scalar simple_scenario_network.node[4].content_store 	misses[4] 	34795
scalar simple_scenario_network.client[0] 	hdistance[0] 	1.3286701603337
scalar simple_scenario_network.client[0] 	downloads[0] 	179563
scalar simple_scenario_network.client[0] 	avg_time[0] 	0.001985509647
