version 2
run General-2426-20140502-05:46:56-11377
attr D costprob0.5
attr F nrr
attr R lru
attr a 1
attr configname General
attr csize 1e3
attr ctlg 1e5
attr datetime 20140502-05:46:56
attr experiment General
attr inifile omnetpp.ini
attr iterationvars "$net=three_caches_scenario_3_links, $rep=5, $priceratiovalue=1, $weights=0_0.5_0.5, $a=1, $ctlg=1e5, $F=nrr, $ttl=1000, $D=costprob0.5, $xi=1, $R=lru, $csize=1e3"
attr iterationvars2 "$net=three_caches_scenario_3_links, $rep=5, $priceratiovalue=1, $weights=0_0.5_0.5, $a=1, $ctlg=1e5, $F=nrr, $ttl=1000, $D=costprob0.5, $xi=1, $R=lru, $csize=1e3, $repetition=0"
attr measurement "$net=three_caches_scenario_3_links, $rep=5, $priceratiovalue=1, $weights=0_0.5_0.5, $a=1, $ctlg=1e5, $F=nrr, $ttl=1000, $D=costprob0.5, $xi=1, $R=lru, $csize=1e3"
attr net three_caches_scenario_3_links
attr network networks.${net=three_caches_scenario_3_links}_network
attr priceratiovalue 1
attr processid 11377
attr rep 5
attr repetition 0
attr replication #0
attr resultdir results
attr runnumber 2426
attr seedset 5
attr ttl 1000
attr weights 0_0.5_0.5
attr xi 1

scalar . 	a 	1
scalar . 	csize 	1e3
scalar . 	ctlg 	1e5
scalar . 	priceratiovalue 	1
scalar . 	rep 	5
scalar . 	ttl 	1000
scalar . 	xi 	1
scalar three_caches_scenario_3_links_network.content_distribution 	repo-0 	4
scalar three_caches_scenario_3_links_network.content_distribution 	repo-1 	5
scalar three_caches_scenario_3_links_network.content_distribution 	repo-2 	6
scalar three_caches_scenario_3_links_network.content_distribution 	client-0 	0
scalar three_caches_scenario_3_links_network.content_distribution 	repo-0_card 	0
scalar three_caches_scenario_3_links_network.content_distribution 	repo-1_card 	49909
scalar three_caches_scenario_3_links_network.content_distribution 	repo-2_card 	50091
scalar three_caches_scenario_3_links_network.statistics 	p_hit 	0.21775052200968
scalar three_caches_scenario_3_links_network.statistics 	interests 	58633.285714286
scalar three_caches_scenario_3_links_network.statistics 	data 	32817.285714286
scalar three_caches_scenario_3_links_network.statistics 	hdistance 	1.7766446057816
scalar three_caches_scenario_3_links_network.statistics 	avg_time 	0
scalar three_caches_scenario_3_links_network.statistics 	downloads 	180712
scalar three_caches_scenario_3_links_network.statistics 	total_cost 	91340
scalar three_caches_scenario_3_links_network.statistics 	total_replicas 	100000
scalar three_caches_scenario_3_links_network.statistics 	interests_sent 	180712
scalar three_caches_scenario_3_links_network.node[0].core_layer 	interests[0] 	180712
scalar three_caches_scenario_3_links_network.node[0].core_layer 	data[0] 	138381
scalar three_caches_scenario_3_links_network.node[0].core_layer 	repo_int[0] 	91340
scalar three_caches_scenario_3_links_network.node[0].content_store 	p_hit[0] 	0.23424565053787
scalar three_caches_scenario_3_links_network.node[0].content_store 	hits[0] 	42331
scalar three_caches_scenario_3_links_network.node[0].content_store 	misses[0] 	138381
scalar three_caches_scenario_3_links_network.node[0].content_store 	decision_yes[0] 	45741
scalar three_caches_scenario_3_links_network.node[0].content_store 	decision_no[0] 	92640
scalar three_caches_scenario_3_links_network.node[1].core_layer 	interests[1] 	0
scalar three_caches_scenario_3_links_network.node[1].core_layer 	data[1] 	0
scalar three_caches_scenario_3_links_network.node[1].content_store 	p_hit[1] 	-nan
scalar three_caches_scenario_3_links_network.node[1].content_store 	hits[1] 	0
scalar three_caches_scenario_3_links_network.node[1].content_store 	misses[1] 	0
scalar three_caches_scenario_3_links_network.node[1].content_store 	decision_yes[1] 	0
scalar three_caches_scenario_3_links_network.node[1].content_store 	decision_no[1] 	0
scalar three_caches_scenario_3_links_network.node[2].core_layer 	interests[2] 	70527
scalar three_caches_scenario_3_links_network.node[2].core_layer 	data[2] 	45869
scalar three_caches_scenario_3_links_network.node[2].content_store 	p_hit[2] 	0.34962496632495
scalar three_caches_scenario_3_links_network.node[2].content_store 	hits[2] 	24658
scalar three_caches_scenario_3_links_network.node[2].content_store 	misses[2] 	45869
scalar three_caches_scenario_3_links_network.node[2].content_store 	decision_yes[2] 	22740
scalar three_caches_scenario_3_links_network.node[2].content_store 	decision_no[2] 	23129
scalar three_caches_scenario_3_links_network.node[3].core_layer 	interests[3] 	67854
scalar three_caches_scenario_3_links_network.node[3].core_layer 	data[3] 	45471
scalar three_caches_scenario_3_links_network.node[3].content_store 	p_hit[3] 	0.32987001503228
scalar three_caches_scenario_3_links_network.node[3].content_store 	hits[3] 	22383
scalar three_caches_scenario_3_links_network.node[3].content_store 	misses[3] 	45471
scalar three_caches_scenario_3_links_network.node[3].content_store 	decision_yes[3] 	22799
scalar three_caches_scenario_3_links_network.node[3].content_store 	decision_no[3] 	22672
scalar three_caches_scenario_3_links_network.node[4].core_layer 	interests[4] 	0
scalar three_caches_scenario_3_links_network.node[4].core_layer 	data[4] 	0
scalar three_caches_scenario_3_links_network.node[4].content_store 	p_hit[4] 	-nan
scalar three_caches_scenario_3_links_network.node[4].content_store 	hits[4] 	0
scalar three_caches_scenario_3_links_network.node[4].content_store 	misses[4] 	0
scalar three_caches_scenario_3_links_network.node[4].content_store 	decision_yes[4] 	0
scalar three_caches_scenario_3_links_network.node[4].content_store 	decision_no[4] 	0
scalar three_caches_scenario_3_links_network.node[5].core_layer 	interests[5] 	45869
scalar three_caches_scenario_3_links_network.node[5].core_layer 	repo_load[5] 	45869
scalar three_caches_scenario_3_links_network.node[5].core_layer 	data[5] 	0
scalar three_caches_scenario_3_links_network.node[5].content_store 	p_hit[5] 	0
scalar three_caches_scenario_3_links_network.node[5].content_store 	hits[5] 	0
scalar three_caches_scenario_3_links_network.node[5].content_store 	misses[5] 	45869
scalar three_caches_scenario_3_links_network.node[5].content_store 	decision_yes[5] 	0
scalar three_caches_scenario_3_links_network.node[5].content_store 	decision_no[5] 	45869
scalar three_caches_scenario_3_links_network.node[6].core_layer 	interests[6] 	45471
scalar three_caches_scenario_3_links_network.node[6].core_layer 	repo_load[6] 	45471
scalar three_caches_scenario_3_links_network.node[6].core_layer 	data[6] 	0
scalar three_caches_scenario_3_links_network.node[6].content_store 	p_hit[6] 	0
scalar three_caches_scenario_3_links_network.node[6].content_store 	hits[6] 	0
scalar three_caches_scenario_3_links_network.node[6].content_store 	misses[6] 	45471
scalar three_caches_scenario_3_links_network.node[6].content_store 	decision_yes[6] 	0
scalar three_caches_scenario_3_links_network.node[6].content_store 	decision_no[6] 	45471
scalar three_caches_scenario_3_links_network.client[0] 	hdistance[0] 	1.7766446057816
scalar three_caches_scenario_3_links_network.client[0] 	downloads[0] 	180712
scalar three_caches_scenario_3_links_network.client[0] 	avg_time[0] 	0
scalar three_caches_scenario_3_links_network.client[0] 	interests_sent[0] 	180712
