version 2
run General-0-20140502-16:12:27-18170
attr D fix0.01
attr F nrr
attr R lru
attr a 1
attr configname General
attr csize 1e3
attr ctlg 1e5
attr datetime 20140502-16:12:27
attr experiment General
attr inifile omnetpp.ini
attr iterationvars "$net=border_caches_scenario_3_links, $rep=1, $priceratiovalue=10, $weights=0.333_0.333_0.333, $a=1, $ctlg=1e5, $F=nrr, $ttl=1000, $D=fix0.01, $xi=1, $R=lru, $csize=1e3"
attr iterationvars2 "$net=border_caches_scenario_3_links, $rep=1, $priceratiovalue=10, $weights=0.333_0.333_0.333, $a=1, $ctlg=1e5, $F=nrr, $ttl=1000, $D=fix0.01, $xi=1, $R=lru, $csize=1e3, $repetition=0"
attr measurement "$net=border_caches_scenario_3_links, $rep=1, $priceratiovalue=10, $weights=0.333_0.333_0.333, $a=1, $ctlg=1e5, $F=nrr, $ttl=1000, $D=fix0.01, $xi=1, $R=lru, $csize=1e3"
attr net border_caches_scenario_3_links
attr network networks.${net=border_caches_scenario_3_links}_network
attr priceratiovalue 10
attr processid 18170
attr rep 1
attr repetition 0
attr replication #0
attr resultdir results
attr runnumber 0
attr seedset 1
attr ttl 1000
attr weights 0.333_0.333_0.333
attr xi 1

scalar . 	a 	1
scalar . 	csize 	1e3
scalar . 	ctlg 	1e5
scalar . 	priceratiovalue 	10
scalar . 	rep 	1
scalar . 	ttl 	1000
scalar . 	xi 	1
scalar border_caches_scenario_3_links_network.content_distribution 	repo-0 	4
scalar border_caches_scenario_3_links_network.content_distribution 	repo-1 	5
scalar border_caches_scenario_3_links_network.content_distribution 	repo-2 	6
scalar border_caches_scenario_3_links_network.content_distribution 	client-0 	0
scalar border_caches_scenario_3_links_network.content_distribution 	repo-0_card 	33388
scalar border_caches_scenario_3_links_network.content_distribution 	repo-1_card 	33296
scalar border_caches_scenario_3_links_network.content_distribution 	repo-2_card 	33316
scalar border_caches_scenario_3_links_network.statistics 	p_hit 	0.10809362818452
scalar border_caches_scenario_3_links_network.statistics 	interests 	69594.428571429
scalar border_caches_scenario_3_links_network.statistics 	data 	43888.714285714
scalar border_caches_scenario_3_links_network.statistics 	hdistance 	1.0698399466489
scalar border_caches_scenario_3_links_network.statistics 	avg_time 	0
scalar border_caches_scenario_3_links_network.statistics 	downloads 	179940
scalar border_caches_scenario_3_links_network.statistics 	total_cost 	354738
scalar border_caches_scenario_3_links_network.statistics 	total_replicas 	100000
scalar border_caches_scenario_3_links_network.statistics 	interests_sent 	179940
scalar border_caches_scenario_3_links_network.node[0].core_layer 	interests[0] 	179940
scalar border_caches_scenario_3_links_network.node[0].core_layer 	data[0] 	179940
scalar border_caches_scenario_3_links_network.node[0].core_layer 	repo_int[0] 	127281
scalar border_caches_scenario_3_links_network.node[0].content_store 	p_hit[0] 	0
scalar border_caches_scenario_3_links_network.node[0].content_store 	hits[0] 	0
scalar border_caches_scenario_3_links_network.node[0].content_store 	misses[0] 	179940
scalar border_caches_scenario_3_links_network.node[0].content_store 	decision_yes[0] 	0
scalar border_caches_scenario_3_links_network.node[0].content_store 	decision_no[0] 	179940
scalar border_caches_scenario_3_links_network.node[1].core_layer 	interests[1] 	62055
scalar border_caches_scenario_3_links_network.node[1].core_layer 	data[1] 	62055
scalar border_caches_scenario_3_links_network.node[1].content_store 	p_hit[1] 	0
scalar border_caches_scenario_3_links_network.node[1].content_store 	hits[1] 	0
scalar border_caches_scenario_3_links_network.node[1].content_store 	misses[1] 	62055
scalar border_caches_scenario_3_links_network.node[1].content_store 	decision_yes[1] 	0
scalar border_caches_scenario_3_links_network.node[1].content_store 	decision_no[1] 	62055
scalar border_caches_scenario_3_links_network.node[2].core_layer 	interests[2] 	64600
scalar border_caches_scenario_3_links_network.node[2].core_layer 	data[2] 	33058
scalar border_caches_scenario_3_links_network.node[2].content_store 	p_hit[2] 	0.48826625386997
scalar border_caches_scenario_3_links_network.node[2].content_store 	hits[2] 	31542
scalar border_caches_scenario_3_links_network.node[2].content_store 	misses[2] 	33058
scalar border_caches_scenario_3_links_network.node[2].content_store 	decision_yes[2] 	313
scalar border_caches_scenario_3_links_network.node[2].content_store 	decision_no[2] 	32745
scalar border_caches_scenario_3_links_network.node[3].core_layer 	interests[3] 	53285
scalar border_caches_scenario_3_links_network.node[3].core_layer 	data[3] 	32168
scalar border_caches_scenario_3_links_network.node[3].content_store 	p_hit[3] 	0.39630289950267
scalar border_caches_scenario_3_links_network.node[3].content_store 	hits[3] 	21117
scalar border_caches_scenario_3_links_network.node[3].content_store 	misses[3] 	32168
scalar border_caches_scenario_3_links_network.node[3].content_store 	decision_yes[3] 	335
scalar border_caches_scenario_3_links_network.node[3].content_store 	decision_no[3] 	31833
scalar border_caches_scenario_3_links_network.node[4].core_layer 	interests[4] 	62055
scalar border_caches_scenario_3_links_network.node[4].core_layer 	repo_load[4] 	62055
scalar border_caches_scenario_3_links_network.node[4].core_layer 	data[4] 	0
scalar border_caches_scenario_3_links_network.node[4].content_store 	p_hit[4] 	0
scalar border_caches_scenario_3_links_network.node[4].content_store 	hits[4] 	0
scalar border_caches_scenario_3_links_network.node[4].content_store 	misses[4] 	62055
scalar border_caches_scenario_3_links_network.node[4].content_store 	decision_yes[4] 	0
scalar border_caches_scenario_3_links_network.node[4].content_store 	decision_no[4] 	62055
scalar border_caches_scenario_3_links_network.node[5].core_layer 	interests[5] 	33058
scalar border_caches_scenario_3_links_network.node[5].core_layer 	repo_load[5] 	33058
scalar border_caches_scenario_3_links_network.node[5].core_layer 	data[5] 	0
scalar border_caches_scenario_3_links_network.node[5].content_store 	p_hit[5] 	0
scalar border_caches_scenario_3_links_network.node[5].content_store 	hits[5] 	0
scalar border_caches_scenario_3_links_network.node[5].content_store 	misses[5] 	33058
scalar border_caches_scenario_3_links_network.node[5].content_store 	decision_yes[5] 	0
scalar border_caches_scenario_3_links_network.node[5].content_store 	decision_no[5] 	33058
scalar border_caches_scenario_3_links_network.node[6].core_layer 	interests[6] 	32168
scalar border_caches_scenario_3_links_network.node[6].core_layer 	repo_load[6] 	32168
scalar border_caches_scenario_3_links_network.node[6].core_layer 	data[6] 	0
scalar border_caches_scenario_3_links_network.node[6].content_store 	p_hit[6] 	0
scalar border_caches_scenario_3_links_network.node[6].content_store 	hits[6] 	0
scalar border_caches_scenario_3_links_network.node[6].content_store 	misses[6] 	32168
scalar border_caches_scenario_3_links_network.node[6].content_store 	decision_yes[6] 	0
scalar border_caches_scenario_3_links_network.node[6].content_store 	decision_no[6] 	32168
scalar border_caches_scenario_3_links_network.client[0] 	hdistance[0] 	1.0698399466489
scalar border_caches_scenario_3_links_network.client[0] 	downloads[0] 	179940
scalar border_caches_scenario_3_links_network.client[0] 	avg_time[0] 	0
scalar border_caches_scenario_3_links_network.client[0] 	interests_sent[0] 	179940
