version 2
run General-10-20150311-18:59:38-28963
attr D prob_cache
attr F spr
attr R lru
attr a 0.7
attr configname General
attr datetime 20150311-18:59:38
attr experiment General
attr inifile omnetpp.ini
attr iterationvars "$net=abilene, $rep=0, $a=0.7, $F=spr, $ttl=1000, $D=prob_cache, $R=lru"
attr iterationvars2 "$net=abilene, $rep=0, $a=0.7, $F=spr, $ttl=1000, $D=prob_cache, $R=lru, $repetition=0"
attr measurement "$net=abilene, $rep=0, $a=0.7, $F=spr, $ttl=1000, $D=prob_cache, $R=lru"
attr net abilene
attr network networks.${net=abilene}_network
attr processid 28963
attr rep 0
attr repetition 0
attr replication #0
attr resultdir results
attr runnumber 10
attr seedset 0
attr ttl 1000

scalar . 	a 	0.7
scalar . 	rep 	0
scalar . 	ttl 	1000
scalar abilene_network.content_distribution 	repo-0 	5
scalar abilene_network.content_distribution 	client-0 	8
scalar abilene_network.content_distribution 	client-1 	9
scalar abilene_network.content_distribution 	client-2 	5
scalar abilene_network.content_distribution 	client-3 	0
scalar abilene_network.content_distribution 	client-4 	1
scalar abilene_network.content_distribution 	client-5 	7
scalar abilene_network.content_distribution 	client-6 	6
scalar abilene_network.content_distribution 	client-7 	2
scalar abilene_network.content_distribution 	client-8 	4
scalar abilene_network.content_distribution 	client-9 	10
scalar abilene_network.content_distribution 	client-10 	3
scalar abilene_network.content_distribution 	repo-0_card 	10000
scalar abilene_network.content_distribution 	repo-0_price 	0
scalar abilene_network.statistics 	stabilization_time 	1125.1
scalar abilene_network.statistics 	p_hit 	0.053392016998027
scalar abilene_network.statistics 	interests 	5990
scalar abilene_network.statistics 	data 	4192.8181818182
scalar abilene_network.statistics 	hdistance 	3.1419930984135
scalar abilene_network.statistics 	avg_time 	0.013108854199
scalar abilene_network.statistics 	downloads 	19767
scalar abilene_network.statistics 	total_cost 	0
scalar abilene_network.statistics 	total_replicas 	10000
scalar abilene_network.statistics 	inner_hit 	0.17802397935954
scalar abilene_network.node[0].core_layer 	interests[0] 	1834
scalar abilene_network.node[0].core_layer 	data[0] 	1612
scalar abilene_network.node[0].core_layer 	repo_int[0] 	16248
scalar abilene_network.node[0].content_store 	p_hit[0] 	0.12050163576881
scalar abilene_network.node[0].content_store 	hits[0] 	221
scalar abilene_network.node[0].content_store 	misses[0] 	1613
scalar abilene_network.node[0].content_store 	decision_yes[0] 	188
scalar abilene_network.node[0].content_store 	decision_no[0] 	1424
scalar abilene_network.node[0].content_store 	decision_ratio[0] 	0.1166253101737
scalar abilene_network.node[1].core_layer 	interests[1] 	4995
scalar abilene_network.node[1].core_layer 	data[1] 	4709
scalar abilene_network.node[1].content_store 	p_hit[1] 	0.057257257257257
scalar abilene_network.node[1].content_store 	hits[1] 	286
scalar abilene_network.node[1].content_store 	misses[1] 	4709
scalar abilene_network.node[1].content_store 	decision_yes[1] 	723
scalar abilene_network.node[1].content_store 	decision_no[1] 	3986
scalar abilene_network.node[1].content_store 	decision_ratio[1] 	0.15353578254406
scalar abilene_network.node[2].core_layer 	interests[2] 	6491
scalar abilene_network.node[2].core_layer 	data[2] 	6168
scalar abilene_network.node[2].content_store 	p_hit[2] 	0.049761207826221
scalar abilene_network.node[2].content_store 	hits[2] 	323
scalar abilene_network.node[2].content_store 	misses[2] 	6168
scalar abilene_network.node[2].content_store 	decision_yes[2] 	1046
scalar abilene_network.node[2].content_store 	decision_no[2] 	5122
scalar abilene_network.node[2].content_store 	decision_ratio[2] 	0.16958495460441
scalar abilene_network.node[3].core_layer 	interests[3] 	7990
scalar abilene_network.node[3].core_layer 	data[3] 	7662
scalar abilene_network.node[3].content_store 	p_hit[3] 	0.041051314142678
scalar abilene_network.node[3].content_store 	hits[3] 	328
scalar abilene_network.node[3].content_store 	misses[3] 	7662
scalar abilene_network.node[3].content_store 	decision_yes[3] 	1240
scalar abilene_network.node[3].content_store 	decision_no[3] 	6422
scalar abilene_network.node[3].content_store 	decision_ratio[3] 	0.16183764030279
scalar abilene_network.node[4].core_layer 	interests[4] 	9406
scalar abilene_network.node[4].core_layer 	data[4] 	9039
scalar abilene_network.node[4].content_store 	p_hit[4] 	0.03901764830959
scalar abilene_network.node[4].content_store 	hits[4] 	367
scalar abilene_network.node[4].content_store 	misses[4] 	9039
scalar abilene_network.node[4].content_store 	decision_yes[4] 	1314
scalar abilene_network.node[4].content_store 	decision_no[4] 	7725
scalar abilene_network.node[4].content_store 	decision_ratio[4] 	0.14537006306007
scalar abilene_network.node[5].core_layer 	interests[5] 	16876
scalar abilene_network.node[5].core_layer 	repo_load[5] 	16248
scalar abilene_network.node[5].core_layer 	data[5] 	0
scalar abilene_network.node[5].content_store 	p_hit[5] 	0.037212609623133
scalar abilene_network.node[5].content_store 	hits[5] 	628
scalar abilene_network.node[5].content_store 	misses[5] 	16248
scalar abilene_network.node[5].content_store 	decision_yes[5] 	1619
scalar abilene_network.node[5].content_store 	decision_no[5] 	14629
scalar abilene_network.node[5].content_store 	decision_ratio[5] 	0.099643032988676
scalar abilene_network.node[6].core_layer 	interests[6] 	6367
scalar abilene_network.node[6].core_layer 	data[6] 	6043
scalar abilene_network.node[6].content_store 	p_hit[6] 	0.050887388094864
scalar abilene_network.node[6].content_store 	hits[6] 	324
scalar abilene_network.node[6].content_store 	misses[6] 	6043
scalar abilene_network.node[6].content_store 	decision_yes[6] 	836
scalar abilene_network.node[6].content_store 	decision_no[6] 	5207
scalar abilene_network.node[6].content_store 	decision_ratio[6] 	0.13834188317061
scalar abilene_network.node[7].core_layer 	interests[7] 	4888
scalar abilene_network.node[7].core_layer 	data[7] 	4599
scalar abilene_network.node[7].content_store 	p_hit[7] 	0.058715220949263
scalar abilene_network.node[7].content_store 	hits[7] 	287
scalar abilene_network.node[7].content_store 	misses[7] 	4601
scalar abilene_network.node[7].content_store 	decision_yes[7] 	661
scalar abilene_network.node[7].content_store 	decision_no[7] 	3938
scalar abilene_network.node[7].content_store 	decision_ratio[7] 	0.14372689715155
scalar abilene_network.node[8].core_layer 	interests[8] 	3349
scalar abilene_network.node[8].core_layer 	data[8] 	3092
scalar abilene_network.node[8].content_store 	p_hit[8] 	0.076739325171693
scalar abilene_network.node[8].content_store 	hits[8] 	257
scalar abilene_network.node[8].content_store 	misses[8] 	3092
scalar abilene_network.node[8].content_store 	decision_yes[8] 	424
scalar abilene_network.node[8].content_store 	decision_no[8] 	2668
scalar abilene_network.node[8].content_store 	decision_ratio[8] 	0.13712807244502
scalar abilene_network.node[9].core_layer 	interests[9] 	1892
scalar abilene_network.node[9].core_layer 	data[9] 	1633
scalar abilene_network.node[9].content_store 	p_hit[9] 	0.13689217758985
scalar abilene_network.node[9].content_store 	hits[9] 	259
scalar abilene_network.node[9].content_store 	misses[9] 	1633
scalar abilene_network.node[9].content_store 	decision_yes[9] 	186
scalar abilene_network.node[9].content_store 	decision_no[9] 	1447
scalar abilene_network.node[9].content_store 	decision_ratio[9] 	0.11390079608083
scalar abilene_network.node[10].core_layer 	interests[10] 	1802
scalar abilene_network.node[10].core_layer 	data[10] 	1564
scalar abilene_network.node[10].content_store 	p_hit[10] 	0.13207547169811
scalar abilene_network.node[10].content_store 	hits[10] 	238
scalar abilene_network.node[10].content_store 	misses[10] 	1564
scalar abilene_network.node[10].content_store 	decision_yes[10] 	176
scalar abilene_network.node[10].content_store 	decision_no[10] 	1388
scalar abilene_network.node[10].content_store 	decision_ratio[10] 	0.11253196930946
scalar abilene_network.client[0] 	hdistance[0] 	4.8761593016912
scalar abilene_network.client[0] 	downloads[0] 	1833
scalar abilene_network.client[0] 	avg_time[0] 	0.026000763318
scalar abilene_network.client[1] 	hdistance[1] 	4.2497249724973
scalar abilene_network.client[1] 	downloads[1] 	1818
scalar abilene_network.client[1] 	avg_time[1] 	0.017475995134
scalar abilene_network.client[2] 	hdistance[2] 	3.4511784511785
scalar abilene_network.client[2] 	downloads[2] 	1782
scalar abilene_network.client[2] 	avg_time[2] 	0.012443759379
scalar abilene_network.client[3] 	hdistance[3] 	2.6180021953897
scalar abilene_network.client[3] 	downloads[3] 	1822
scalar abilene_network.client[3] 	avg_time[3] 	0.008211327746
scalar abilene_network.client[4] 	hdistance[4] 	1.8102064220183
scalar abilene_network.client[4] 	downloads[4] 	1744
scalar abilene_network.client[4] 	avg_time[4] 	0.007088027089
scalar abilene_network.client[5] 	hdistance[5] 	0.9314381270903
scalar abilene_network.client[5] 	downloads[5] 	1794
scalar abilene_network.client[5] 	avg_time[5] 	0
scalar abilene_network.client[6] 	hdistance[6] 	1.7839366515837
scalar abilene_network.client[6] 	downloads[6] 	1768
scalar abilene_network.client[6] 	avg_time[6] 	0.00200339322
scalar abilene_network.client[7] 	hdistance[7] 	2.5846325167038
scalar abilene_network.client[7] 	downloads[7] 	1796
scalar abilene_network.client[7] 	avg_time[7] 	0.0071402356
scalar abilene_network.client[8] 	hdistance[8] 	3.3543123543124
scalar abilene_network.client[8] 	downloads[8] 	1716
scalar abilene_network.client[8] 	avg_time[8] 	0.013454323586
scalar abilene_network.client[9] 	hdistance[9] 	4.0443974630021
scalar abilene_network.client[9] 	downloads[9] 	1892
scalar abilene_network.client[9] 	avg_time[9] 	0.025351203104
scalar abilene_network.client[10] 	hdistance[10] 	4.857935627081
scalar abilene_network.client[10] 	downloads[10] 	1802
scalar abilene_network.client[10] 	avg_time[10] 	0.025028368023
