version 2
run General-1-20150901-19:12:55-32204
attr C 1e1
attr D fix1
attr F spr
attr R partitionedn
attr a 1
attr brates 0.3_0.7_1.5_2.5_3.5
attr configname General
attr ctlg 1e3
attr datetime 20150901-19:12:55
attr experiment General
attr inifile omnetpp.ini
attr iterationvars "$net=abilene_nodelay, $rep=0, $lambda=100, $a=1, $ctlg=1e3, $brates=0.3_0.7_1.5_2.5_3.5, $F=spr, $ttl=1000, $D=fix1, $R=partitionedn, $proactiveprob=0.1, $C=1e1, $window=60, $variance=0.05, $mytime=1"
attr iterationvars2 "$net=abilene_nodelay, $rep=0, $lambda=100, $a=1, $ctlg=1e3, $brates=0.3_0.7_1.5_2.5_3.5, $F=spr, $ttl=1000, $D=fix1, $R=partitionedn, $proactiveprob=0.1, $C=1e1, $window=60, $variance=0.05, $mytime=1, $repetition=0"
attr lambda 100
attr measurement "$net=abilene_nodelay, $rep=0, $lambda=100, $a=1, $ctlg=1e3, $brates=0.3_0.7_1.5_2.5_3.5, $F=spr, $ttl=1000, $D=fix1, $R=partitionedn, $proactiveprob=0.1, $C=1e1, $window=60, $variance=0.05, $mytime=1"
attr mytime 1
attr net abilene_nodelay
attr network networks.${net=abilene_nodelay}_network
attr proactiveprob 0.1
attr processid 32204
attr rep 0
attr repetition 0
attr replication #0
attr resultdir results
attr runnumber 1
attr seedset 0
attr ttl 1000
attr variance 0.05
attr window 60

scalar . 	C 	1e1
scalar . 	a 	1
scalar . 	ctlg 	1e3
scalar . 	lambda 	100
scalar . 	mytime 	1
scalar . 	proactiveprob 	0.1
scalar . 	rep 	0
scalar . 	ttl 	1000
scalar . 	variance 	0.05
scalar . 	window 	60
scalar abilene_nodelay_network.content_distribution 	repo-0 	5
scalar abilene_nodelay_network.content_distribution 	repo-1 	8
scalar abilene_nodelay_network.content_distribution 	repo-2 	9
scalar abilene_nodelay_network.content_distribution 	repo-3 	0
scalar abilene_nodelay_network.content_distribution 	repo-4 	1
scalar abilene_nodelay_network.content_distribution 	repo-5 	7
scalar abilene_nodelay_network.content_distribution 	repo-6 	6
scalar abilene_nodelay_network.content_distribution 	repo-7 	2
scalar abilene_nodelay_network.content_distribution 	repo-8 	4
scalar abilene_nodelay_network.content_distribution 	repo-9 	10
scalar abilene_nodelay_network.content_distribution 	repo-10 	3
scalar abilene_nodelay_network.content_distribution 	client-0 	10
scalar abilene_nodelay_network.content_distribution 	client-1 	9
scalar abilene_nodelay_network.content_distribution 	client-2 	8
scalar abilene_nodelay_network.content_distribution 	client-3 	7
scalar abilene_nodelay_network.content_distribution 	client-4 	3
scalar abilene_nodelay_network.content_distribution 	client-5 	6
scalar abilene_nodelay_network.content_distribution 	client-6 	5
scalar abilene_nodelay_network.content_distribution 	client-7 	1
scalar abilene_nodelay_network.content_distribution 	client-8 	4
scalar abilene_nodelay_network.content_distribution 	client-9 	0
scalar abilene_nodelay_network.content_distribution 	client-10 	2
scalar abilene_nodelay_network.content_distribution 	repo-0_card 	102
scalar abilene_nodelay_network.content_distribution 	repo-0_price 	0
scalar abilene_nodelay_network.content_distribution 	repo-1_card 	81
scalar abilene_nodelay_network.content_distribution 	repo-1_price 	0
scalar abilene_nodelay_network.content_distribution 	repo-2_card 	99
scalar abilene_nodelay_network.content_distribution 	repo-2_price 	0
scalar abilene_nodelay_network.content_distribution 	repo-3_card 	91
scalar abilene_nodelay_network.content_distribution 	repo-3_price 	0
scalar abilene_nodelay_network.content_distribution 	repo-4_card 	88
scalar abilene_nodelay_network.content_distribution 	repo-4_price 	0
scalar abilene_nodelay_network.content_distribution 	repo-5_card 	88
scalar abilene_nodelay_network.content_distribution 	repo-5_price 	0
scalar abilene_nodelay_network.content_distribution 	repo-6_card 	100
scalar abilene_nodelay_network.content_distribution 	repo-6_price 	0
scalar abilene_nodelay_network.content_distribution 	repo-7_card 	92
scalar abilene_nodelay_network.content_distribution 	repo-7_price 	0
scalar abilene_nodelay_network.content_distribution 	repo-8_card 	78
scalar abilene_nodelay_network.content_distribution 	repo-8_price 	0
scalar abilene_nodelay_network.content_distribution 	repo-9_card 	87
scalar abilene_nodelay_network.content_distribution 	repo-9_price 	0
scalar abilene_nodelay_network.content_distribution 	repo-10_card 	94
scalar abilene_nodelay_network.content_distribution 	repo-10_price 	0
scalar abilene_nodelay_network.statistics 	p_hit 	0.15445729881763
scalar abilene_nodelay_network.statistics 	interests 	556584.54545455
scalar abilene_nodelay_network.statistics 	data 	315747
scalar abilene_nodelay_network.statistics 	hdistance 	1.9447108539926
scalar abilene_nodelay_network.statistics 	avg_time 	0
scalar abilene_nodelay_network.statistics 	downloads 	2605303
scalar abilene_nodelay_network.statistics 	total_cost 	0
scalar abilene_nodelay_network.statistics 	total_replicas 	1000
scalar abilene_nodelay_network.statistics 	"representations_downloaded 0.674923:0.0450765:0.0423026:0.0445583:0.19314:" 	0
scalar abilene_nodelay_network.statistics 	"slots_per_representation 100:233:500:833:1167:" 	0
scalar abilene_nodelay_network.statistics 	inner_hit 	0.34611943409269
scalar abilene_nodelay_network.statistics 	interests_sent 	2605304
scalar abilene_nodelay_network.statistics 	execution_time 	1457
scalar abilene_nodelay_network.node[0].core_layer 	interests[0] 	350946
scalar abilene_nodelay_network.node[0].core_layer 	repo_load[0] 	125163
scalar abilene_nodelay_network.node[0].core_layer 	data[0] 	142303
scalar abilene_nodelay_network.node[0].core_layer 	slots_sent[face$o[1]->client[0]] 	88844779
scalar abilene_nodelay_network.node[0].core_layer 	slots_sent[face$o[2]->node[1]] 	9441627
scalar abilene_nodelay_network.node[0].core_layer 	slots_sent[face$o[3]->node[10]] 	2659232
scalar abilene_nodelay_network.node[0].content_store 	p_hit[0] 	0.23787135342759
scalar abilene_nodelay_network.node[0].content_store 	hits[0] 	83480
scalar abilene_nodelay_network.node[0].content_store 	misses[0] 	267466
scalar abilene_nodelay_network.node[0].content_store 	decision_yes[0] 	142303
scalar abilene_nodelay_network.node[0].content_store 	decision_no[0] 	125163
scalar abilene_nodelay_network.node[0].content_store 	decision_ratio[0] 	0.53204145573643
scalar abilene_nodelay_network.node[0].content_store 	"representation_breakdown[0] 0x7fffd5f683e8:0x7fffd5f683e8:0x7fffd5f683e8:0x7fffd5f683e8:0x7fffd5f683e8:" 	0
scalar abilene_nodelay_network.node[0].proactive_component 	hdistance[0].proactive_component 	2.5396404361922
scalar abilene_nodelay_network.node[0].proactive_component 	downloads[0].proactive_component 	3393
scalar abilene_nodelay_network.node[0].proactive_component 	avg_time[0].proactive_component 	0
scalar abilene_nodelay_network.node[0].proactive_component 	interests_sent[0].proactive_component 	3393
scalar abilene_nodelay_network.node[1].core_layer 	interests[1] 	663545
scalar abilene_nodelay_network.node[1].core_layer 	repo_load[1] 	164713
scalar abilene_nodelay_network.node[1].core_layer 	data[1] 	417376
scalar abilene_nodelay_network.node[1].core_layer 	slots_sent[face$o[1]->client[1]] 	80912081
scalar abilene_nodelay_network.node[1].core_layer 	slots_sent[face$o[2]->node[0]] 	13799662
scalar abilene_nodelay_network.node[1].core_layer 	slots_sent[face$o[3]->node[10]] 	11503354
scalar abilene_nodelay_network.node[1].core_layer 	slots_sent[face$o[4]->node[2]] 	27387644
scalar abilene_nodelay_network.node[1].content_store 	p_hit[1] 	0.12275881816606
scalar abilene_nodelay_network.node[1].content_store 	hits[1] 	81456
scalar abilene_nodelay_network.node[1].content_store 	misses[1] 	582089
scalar abilene_nodelay_network.node[1].content_store 	decision_yes[1] 	417376
scalar abilene_nodelay_network.node[1].content_store 	decision_no[1] 	164713
scalar abilene_nodelay_network.node[1].content_store 	decision_ratio[1] 	0.71703124436298
scalar abilene_nodelay_network.node[1].content_store 	"representation_breakdown[1] 0x7fffd5f683e8:0x7fffd5f683e8:0x7fffd5f683e8:0x7fffd5f683e8:0x7fffd5f683e8:" 	0
scalar abilene_nodelay_network.node[1].proactive_component 	hdistance[1].proactive_component 	2.4245022123894
scalar abilene_nodelay_network.node[1].proactive_component 	downloads[1].proactive_component 	3616
scalar abilene_nodelay_network.node[1].proactive_component 	avg_time[1].proactive_component 	0
scalar abilene_nodelay_network.node[1].proactive_component 	interests_sent[1].proactive_component 	3616
scalar abilene_nodelay_network.node[2].core_layer 	interests[2] 	926437
scalar abilene_nodelay_network.node[2].core_layer 	repo_load[2] 	266363
scalar abilene_nodelay_network.node[2].core_layer 	data[2] 	569858
scalar abilene_nodelay_network.node[2].core_layer 	slots_sent[face$o[1]->client[2]] 	83865090
scalar abilene_nodelay_network.node[2].core_layer 	slots_sent[face$o[2]->node[1]] 	28715922
scalar abilene_nodelay_network.node[2].core_layer 	slots_sent[face$o[3]->node[3]] 	39808250
scalar abilene_nodelay_network.node[2].core_layer 	slots_sent[face$o[4]->node[8]] 	16230808
scalar abilene_nodelay_network.node[2].content_store 	p_hit[2] 	0.097379530394404
scalar abilene_nodelay_network.node[2].content_store 	hits[2] 	90216
scalar abilene_nodelay_network.node[2].content_store 	misses[2] 	836221
scalar abilene_nodelay_network.node[2].content_store 	decision_yes[2] 	569858
scalar abilene_nodelay_network.node[2].content_store 	decision_no[2] 	266363
scalar abilene_nodelay_network.node[2].content_store 	decision_ratio[2] 	0.68146817647488
scalar abilene_nodelay_network.node[2].content_store 	"representation_breakdown[2] 0x7fffd5f683e8:0x7fffd5f683e8:0x7fffd5f683e8:0x7fffd5f683e8:0x7fffd5f683e8:" 	0
scalar abilene_nodelay_network.node[2].proactive_component 	hdistance[2].proactive_component 	2.4706703910614
scalar abilene_nodelay_network.node[2].proactive_component 	downloads[2].proactive_component 	4296
scalar abilene_nodelay_network.node[2].proactive_component 	avg_time[2].proactive_component 	0
scalar abilene_nodelay_network.node[2].proactive_component 	interests_sent[2].proactive_component 	4296
scalar abilene_nodelay_network.node[3].core_layer 	interests[3] 	812708
scalar abilene_nodelay_network.node[3].core_layer 	repo_load[3] 	140299
scalar abilene_nodelay_network.node[3].core_layer 	data[3] 	577331
scalar abilene_nodelay_network.node[3].core_layer 	slots_sent[face$o[1]->client[3]] 	85287145
scalar abilene_nodelay_network.node[3].core_layer 	slots_sent[face$o[2]->node[2]] 	30367265
scalar abilene_nodelay_network.node[3].core_layer 	slots_sent[face$o[3]->node[4]] 	23371685
scalar abilene_nodelay_network.node[3].core_layer 	slots_sent[face$o[4]->node[7]] 	18107955
scalar abilene_nodelay_network.node[3].content_store 	p_hit[3] 	0.11698789725215
scalar abilene_nodelay_network.node[3].content_store 	hits[3] 	95077
scalar abilene_nodelay_network.node[3].content_store 	misses[3] 	717631
scalar abilene_nodelay_network.node[3].content_store 	decision_yes[3] 	577331
scalar abilene_nodelay_network.node[3].content_store 	decision_no[3] 	140299
scalar abilene_nodelay_network.node[3].content_store 	decision_ratio[3] 	0.80449674623413
scalar abilene_nodelay_network.node[3].content_store 	"representation_breakdown[3] 0x7fffd5f683e8:0x7fffd5f683e8:0x7fffd5f683e8:0x7fffd5f683e8:0x7fffd5f683e8:" 	0
scalar abilene_nodelay_network.node[3].proactive_component 	hdistance[3].proactive_component 	2.495401594114
scalar abilene_nodelay_network.node[3].proactive_component 	downloads[3].proactive_component 	4893
scalar abilene_nodelay_network.node[3].proactive_component 	avg_time[3].proactive_component 	0
scalar abilene_nodelay_network.node[3].proactive_component 	interests_sent[3].proactive_component 	4893
scalar abilene_nodelay_network.node[4].core_layer 	interests[4] 	498368
scalar abilene_nodelay_network.node[4].core_layer 	repo_load[4] 	130901
scalar abilene_nodelay_network.node[4].core_layer 	data[4] 	276562
scalar abilene_nodelay_network.node[4].core_layer 	slots_sent[face$o[1]->client[4]] 	85678378
scalar abilene_nodelay_network.node[4].core_layer 	slots_sent[face$o[2]->node[3]] 	19027847
scalar abilene_nodelay_network.node[4].core_layer 	slots_sent[face$o[3]->node[5]] 	13254562
scalar abilene_nodelay_network.node[4].content_store 	p_hit[4] 	0.182403364582
scalar abilene_nodelay_network.node[4].content_store 	hits[4] 	90904
scalar abilene_nodelay_network.node[4].content_store 	misses[4] 	407464
scalar abilene_nodelay_network.node[4].content_store 	decision_yes[4] 	276562
scalar abilene_nodelay_network.node[4].content_store 	decision_no[4] 	130901
scalar abilene_nodelay_network.node[4].content_store 	decision_ratio[4] 	0.67874138265315
scalar abilene_nodelay_network.node[4].content_store 	"representation_breakdown[4] 0x7fffd5f683e8:0x7fffd5f683e8:0x7fffd5f683e8:0x7fffd5f683e8:0x7fffd5f683e8:" 	0
scalar abilene_nodelay_network.node[4].proactive_component 	hdistance[4].proactive_component 	2.5324114088159
scalar abilene_nodelay_network.node[4].proactive_component 	downloads[4].proactive_component 	4628
scalar abilene_nodelay_network.node[4].proactive_component 	avg_time[4].proactive_component 	0
scalar abilene_nodelay_network.node[4].proactive_component 	interests_sent[4].proactive_component 	4628
scalar abilene_nodelay_network.node[5].core_layer 	interests[5] 	410669
scalar abilene_nodelay_network.node[5].core_layer 	repo_load[5] 	188582
scalar abilene_nodelay_network.node[5].core_layer 	data[5] 	158755
scalar abilene_nodelay_network.node[5].core_layer 	slots_sent[face$o[1]->client[5]] 	70753211
scalar abilene_nodelay_network.node[5].core_layer 	slots_sent[face$o[2]->node[4]] 	11478278
scalar abilene_nodelay_network.node[5].core_layer 	slots_sent[face$o[3]->node[6]] 	8625305
scalar abilene_nodelay_network.node[5].content_store 	p_hit[5] 	0.15421665623653
scalar abilene_nodelay_network.node[5].content_store 	hits[5] 	63332
scalar abilene_nodelay_network.node[5].content_store 	misses[5] 	347337
scalar abilene_nodelay_network.node[5].content_store 	decision_yes[5] 	158755
scalar abilene_nodelay_network.node[5].content_store 	decision_no[5] 	188582
scalar abilene_nodelay_network.node[5].content_store 	decision_ratio[5] 	0.4570633131512
scalar abilene_nodelay_network.node[5].content_store 	"representation_breakdown[5] 0x7fffd5f683e8:0x7fffd5f683e8:0x7fffd5f683e8:0x7fffd5f683e8:0x7fffd5f683e8:" 	0
scalar abilene_nodelay_network.node[5].proactive_component 	hdistance[5].proactive_component 	2.8753963221306
scalar abilene_nodelay_network.node[5].proactive_component 	downloads[5].proactive_component 	3154
scalar abilene_nodelay_network.node[5].proactive_component 	avg_time[5].proactive_component 	0
scalar abilene_nodelay_network.node[5].proactive_component 	interests_sent[5].proactive_component 	3154
scalar abilene_nodelay_network.node[6].core_layer 	interests[6] 	441110
scalar abilene_nodelay_network.node[6].core_layer 	repo_load[6] 	138745
scalar abilene_nodelay_network.node[6].core_layer 	data[6] 	212388
scalar abilene_nodelay_network.node[6].core_layer 	slots_sent[face$o[1]->client[6]] 	89897332
scalar abilene_nodelay_network.node[6].core_layer 	slots_sent[face$o[2]->node[5]] 	6846343
scalar abilene_nodelay_network.node[6].core_layer 	slots_sent[face$o[3]->node[7]] 	16623262
scalar abilene_nodelay_network.node[6].content_store 	p_hit[6] 	0.20397859944232
scalar abilene_nodelay_network.node[6].content_store 	hits[6] 	89977
scalar abilene_nodelay_network.node[6].content_store 	misses[6] 	351133
scalar abilene_nodelay_network.node[6].content_store 	decision_yes[6] 	212388
scalar abilene_nodelay_network.node[6].content_store 	decision_no[6] 	138745
scalar abilene_nodelay_network.node[6].content_store 	decision_ratio[6] 	0.60486482330057
scalar abilene_nodelay_network.node[6].content_store 	"representation_breakdown[6] 0x7fffd5f683e8:0x7fffd5f683e8:0x7fffd5f683e8:0x7fffd5f683e8:0x7fffd5f683e8:" 	0
scalar abilene_nodelay_network.node[6].proactive_component 	hdistance[6].proactive_component 	2.6125369066546
scalar abilene_nodelay_network.node[6].proactive_component 	downloads[6].proactive_component 	4403
scalar abilene_nodelay_network.node[6].proactive_component 	avg_time[6].proactive_component 	0
scalar abilene_nodelay_network.node[6].proactive_component 	interests_sent[6].proactive_component 	4403
scalar abilene_nodelay_network.node[7].core_layer 	interests[7] 	580261
scalar abilene_nodelay_network.node[7].core_layer 	repo_load[7] 	117928
scalar abilene_nodelay_network.node[7].core_layer 	data[7] 	369139
scalar abilene_nodelay_network.node[7].core_layer 	slots_sent[face$o[1]->client[7]] 	90247200
scalar abilene_nodelay_network.node[7].core_layer 	slots_sent[face$o[2]->node[3]] 	11375674
scalar abilene_nodelay_network.node[7].core_layer 	slots_sent[face$o[3]->node[6]] 	18752386
scalar abilene_nodelay_network.node[7].core_layer 	slots_sent[face$o[4]->node[8]] 	11987944
scalar abilene_nodelay_network.node[7].content_store 	p_hit[7] 	0.1606070371781
scalar abilene_nodelay_network.node[7].content_store 	hits[7] 	93194
scalar abilene_nodelay_network.node[7].content_store 	misses[7] 	487067
scalar abilene_nodelay_network.node[7].content_store 	decision_yes[7] 	369139
scalar abilene_nodelay_network.node[7].content_store 	decision_no[7] 	117928
scalar abilene_nodelay_network.node[7].content_store 	decision_ratio[7] 	0.75788135923805
scalar abilene_nodelay_network.node[7].content_store 	"representation_breakdown[7] 0x7fffd5f683e8:0x7fffd5f683e8:0x7fffd5f683e8:0x7fffd5f683e8:0x7fffd5f683e8:" 	0
scalar abilene_nodelay_network.node[7].proactive_component 	hdistance[7].proactive_component 	2.4777658431794
scalar abilene_nodelay_network.node[7].proactive_component 	downloads[7].proactive_component 	4655
scalar abilene_nodelay_network.node[7].proactive_component 	avg_time[7].proactive_component 	0
scalar abilene_nodelay_network.node[7].proactive_component 	interests_sent[7].proactive_component 	4655
scalar abilene_nodelay_network.node[8].core_layer 	interests[8] 	550872
scalar abilene_nodelay_network.node[8].core_layer 	repo_load[8] 	105467
scalar abilene_nodelay_network.node[8].core_layer 	data[8] 	352992
scalar abilene_nodelay_network.node[8].core_layer 	slots_sent[face$o[1]->client[8]] 	89772479
scalar abilene_nodelay_network.node[8].core_layer 	slots_sent[face$o[2]->node[2]] 	9763801
scalar abilene_nodelay_network.node[8].core_layer 	slots_sent[face$o[3]->node[7]] 	12729402
scalar abilene_nodelay_network.node[8].core_layer 	slots_sent[face$o[4]->node[9]] 	15444405
scalar abilene_nodelay_network.node[8].content_store 	p_hit[8] 	0.16775766421238
scalar abilene_nodelay_network.node[8].content_store 	hits[8] 	92413
scalar abilene_nodelay_network.node[8].content_store 	misses[8] 	458459
scalar abilene_nodelay_network.node[8].content_store 	decision_yes[8] 	352992
scalar abilene_nodelay_network.node[8].content_store 	decision_no[8] 	105467
scalar abilene_nodelay_network.node[8].content_store 	decision_ratio[8] 	0.76995325645259
scalar abilene_nodelay_network.node[8].content_store 	"representation_breakdown[8] 0x7fffd5f683e8:0x7fffd5f683e8:0x7fffd5f683e8:0x7fffd5f683e8:0x7fffd5f683e8:" 	0
scalar abilene_nodelay_network.node[8].proactive_component 	hdistance[8].proactive_component 	2.2903151598804
scalar abilene_nodelay_network.node[8].proactive_component 	downloads[8].proactive_component 	4347
scalar abilene_nodelay_network.node[8].proactive_component 	avg_time[8].proactive_component 	0
scalar abilene_nodelay_network.node[8].proactive_component 	interests_sent[8].proactive_component 	4347
scalar abilene_nodelay_network.node[9].core_layer 	interests[9] 	439178
scalar abilene_nodelay_network.node[9].core_layer 	repo_load[9] 	142690
scalar abilene_nodelay_network.node[9].core_layer 	data[9] 	211659
scalar abilene_nodelay_network.node[9].core_layer 	slots_sent[face$o[1]->client[9]] 	89767667
scalar abilene_nodelay_network.node[9].core_layer 	slots_sent[face$o[2]->node[10]] 	8116026
scalar abilene_nodelay_network.node[9].core_layer 	slots_sent[face$o[3]->node[8]] 	15987182
scalar abilene_nodelay_network.node[9].content_store 	p_hit[9] 	0.19315402866264
scalar abilene_nodelay_network.node[9].content_store 	hits[9] 	84829
scalar abilene_nodelay_network.node[9].content_store 	misses[9] 	354349
scalar abilene_nodelay_network.node[9].content_store 	decision_yes[9] 	211659
scalar abilene_nodelay_network.node[9].content_store 	decision_no[9] 	142690
scalar abilene_nodelay_network.node[9].content_store 	decision_ratio[9] 	0.59731789845604
scalar abilene_nodelay_network.node[9].content_store 	"representation_breakdown[9] 0x7fffd5f683e8:0x7fffd5f683e8:0x7fffd5f683e8:0x7fffd5f683e8:0x7fffd5f683e8:" 	0
scalar abilene_nodelay_network.node[9].proactive_component 	hdistance[9].proactive_component 	2.50382803298
scalar abilene_nodelay_network.node[9].proactive_component 	downloads[9].proactive_component 	3396
scalar abilene_nodelay_network.node[9].proactive_component 	avg_time[9].proactive_component 	0
scalar abilene_nodelay_network.node[9].proactive_component 	interests_sent[9].proactive_component 	3396
scalar abilene_nodelay_network.node[10].core_layer 	interests[10] 	448336
scalar abilene_nodelay_network.node[10].core_layer 	repo_load[10] 	182706
scalar abilene_nodelay_network.node[10].core_layer 	data[10] 	184854
scalar abilene_nodelay_network.node[10].core_layer 	slots_sent[face$o[1]->client[10]] 	87201625
scalar abilene_nodelay_network.node[10].core_layer 	slots_sent[face$o[2]->node[0]] 	4138679
scalar abilene_nodelay_network.node[10].core_layer 	slots_sent[face$o[3]->node[1]] 	11248432
scalar abilene_nodelay_network.node[10].core_layer 	slots_sent[face$o[4]->node[9]] 	10445499
scalar abilene_nodelay_network.node[10].content_store 	p_hit[10] 	0.18016844509475
scalar abilene_nodelay_network.node[10].content_store 	hits[10] 	80776
scalar abilene_nodelay_network.node[10].content_store 	misses[10] 	367560
scalar abilene_nodelay_network.node[10].content_store 	decision_yes[10] 	184854
scalar abilene_nodelay_network.node[10].content_store 	decision_no[10] 	182706
scalar abilene_nodelay_network.node[10].content_store 	decision_ratio[10] 	0.50292197192295
scalar abilene_nodelay_network.node[10].content_store 	"representation_breakdown[10] 0x7fffd5f683e8:0x7fffd5f683e8:0x7fffd5f683e8:0x7fffd5f683e8:0x7fffd5f683e8:" 	0
scalar abilene_nodelay_network.node[10].proactive_component 	hdistance[10].proactive_component 	2.4936020473449
scalar abilene_nodelay_network.node[10].proactive_component 	downloads[10].proactive_component 	3126
scalar abilene_nodelay_network.node[10].proactive_component 	avg_time[10].proactive_component 	0
scalar abilene_nodelay_network.node[10].proactive_component 	interests_sent[10].proactive_component 	3126
scalar abilene_nodelay_network.client[0] 	hdistance[0].real 	2.1751013386423
scalar abilene_nodelay_network.client[0] 	downloads[0].real 	236583
scalar abilene_nodelay_network.client[0] 	avg_time[0].real 	0
scalar abilene_nodelay_network.client[0] 	interests_sent[0].real 	236583
scalar abilene_nodelay_network.client[1] 	hdistance[1].real 	1.9003237341571
scalar abilene_nodelay_network.client[1] 	downloads[1].real 	236305
scalar abilene_nodelay_network.client[1] 	avg_time[1].real 	0
scalar abilene_nodelay_network.client[1] 	interests_sent[1].real 	236305
scalar abilene_nodelay_network.client[2] 	hdistance[2].real 	1.6880316994126
scalar abilene_nodelay_network.client[2] 	downloads[2].real 	236976
scalar abilene_nodelay_network.client[2] 	avg_time[2].real 	0
scalar abilene_nodelay_network.client[2] 	interests_sent[2].real 	236976
scalar abilene_nodelay_network.client[3] 	hdistance[3].real 	1.7762920114845
scalar abilene_nodelay_network.client[3] 	downloads[3].real 	236840
scalar abilene_nodelay_network.client[3] 	avg_time[3].real 	0
scalar abilene_nodelay_network.client[3] 	interests_sent[3].real 	236840
scalar abilene_nodelay_network.client[4] 	hdistance[4].real 	2.0278398459114
scalar abilene_nodelay_network.client[4] 	downloads[4].real 	236747
scalar abilene_nodelay_network.client[4] 	avg_time[4].real 	0
scalar abilene_nodelay_network.client[4] 	interests_sent[4].real 	236748
scalar abilene_nodelay_network.client[5] 	hdistance[5].real 	2.2432851196056
scalar abilene_nodelay_network.client[5] 	downloads[5].real 	236862
scalar abilene_nodelay_network.client[5] 	avg_time[5].real 	0
scalar abilene_nodelay_network.client[5] 	interests_sent[5].real 	236862
scalar abilene_nodelay_network.client[6] 	hdistance[6].real 	2.0637593096609
scalar abilene_nodelay_network.client[6] 	downloads[6].real 	236985
scalar abilene_nodelay_network.client[6] 	avg_time[6].real 	0
scalar abilene_nodelay_network.client[6] 	interests_sent[6].real 	236985
scalar abilene_nodelay_network.client[7] 	hdistance[7].real 	1.8138305980387
scalar abilene_nodelay_network.client[7] 	downloads[7].real 	236172
scalar abilene_nodelay_network.client[7] 	avg_time[7].real 	0
scalar abilene_nodelay_network.client[7] 	interests_sent[7].real 	236172
scalar abilene_nodelay_network.client[8] 	hdistance[8].real 	1.7434343179226
scalar abilene_nodelay_network.client[8] 	downloads[8].real 	237561
scalar abilene_nodelay_network.client[8] 	avg_time[8].real 	0
scalar abilene_nodelay_network.client[8] 	interests_sent[8].real 	237561
scalar abilene_nodelay_network.client[9] 	hdistance[9].real 	1.9593108953377
scalar abilene_nodelay_network.client[9] 	downloads[9].real 	236771
scalar abilene_nodelay_network.client[9] 	avg_time[9].real 	0
scalar abilene_nodelay_network.client[9] 	interests_sent[9].real 	236771
scalar abilene_nodelay_network.client[10] 	hdistance[10].real 	2.0006105237451
scalar abilene_nodelay_network.client[10] 	downloads[10].real 	237501
scalar abilene_nodelay_network.client[10] 	avg_time[10].real 	0
scalar abilene_nodelay_network.client[10] 	interests_sent[10].real 	237501
