version 2
run General-8-20150804-03:51:23-15121
attr C 1e4
attr D fix0.1
attr F spr
attr R lru_repr
attr a 1
attr brates 0.3_0.7_1.5_2.5_3.5
attr configname General
attr ctlg 1e6
attr datetime 20150804-03:51:23
attr experiment General
attr inifile omnetpp.ini
attr iterationvars "$net=abilene_nodelay, $rep=0, $lambda=100, $a=1, $ctlg=1e6, $brates=0.3_0.7_1.5_2.5_3.5, $F=spr, $ttl=1000, $D=fix0.1, $R=lru_repr, $proactiveprob=1, $C=1e4, $window=60, $variance=0.05, $mytime=1800001"
attr iterationvars2 "$net=abilene_nodelay, $rep=0, $lambda=100, $a=1, $ctlg=1e6, $brates=0.3_0.7_1.5_2.5_3.5, $F=spr, $ttl=1000, $D=fix0.1, $R=lru_repr, $proactiveprob=1, $C=1e4, $window=60, $variance=0.05, $mytime=1800001, $repetition=0"
attr lambda 100
attr measurement "$net=abilene_nodelay, $rep=0, $lambda=100, $a=1, $ctlg=1e6, $brates=0.3_0.7_1.5_2.5_3.5, $F=spr, $ttl=1000, $D=fix0.1, $R=lru_repr, $proactiveprob=1, $C=1e4, $window=60, $variance=0.05, $mytime=1800001"
attr mytime 1800001
attr net abilene_nodelay
attr network networks.${net=abilene_nodelay}_network
attr proactiveprob 1
attr processid 15121
attr rep 0
attr repetition 0
attr replication #0
attr resultdir results
attr runnumber 8
attr seedset 0
attr ttl 1000
attr variance 0.05
attr window 60

scalar . 	C 	1e4
scalar . 	a 	1
scalar . 	ctlg 	1e6
scalar . 	lambda 	100
scalar . 	mytime 	1800001
scalar . 	proactiveprob 	1
scalar . 	rep 	0
scalar . 	ttl 	1000
scalar . 	variance 	0.05
scalar . 	window 	60
scalar abilene_nodelay_network.content_distribution 	repo-0 	5
scalar abilene_nodelay_network.content_distribution 	repo-1 	8
scalar abilene_nodelay_network.content_distribution 	repo-2 	9
scalar abilene_nodelay_network.content_distribution 	repo-3 	0
scalar abilene_nodelay_network.content_distribution 	repo-4 	1
scalar abilene_nodelay_network.content_distribution 	repo-5 	7
scalar abilene_nodelay_network.content_distribution 	repo-6 	6
scalar abilene_nodelay_network.content_distribution 	repo-7 	2
scalar abilene_nodelay_network.content_distribution 	repo-8 	4
scalar abilene_nodelay_network.content_distribution 	repo-9 	10
scalar abilene_nodelay_network.content_distribution 	repo-10 	3
scalar abilene_nodelay_network.content_distribution 	client-0 	10
scalar abilene_nodelay_network.content_distribution 	client-1 	9
scalar abilene_nodelay_network.content_distribution 	client-2 	8
scalar abilene_nodelay_network.content_distribution 	client-3 	7
scalar abilene_nodelay_network.content_distribution 	client-4 	3
scalar abilene_nodelay_network.content_distribution 	client-5 	6
scalar abilene_nodelay_network.content_distribution 	client-6 	5
scalar abilene_nodelay_network.content_distribution 	client-7 	1
scalar abilene_nodelay_network.content_distribution 	client-8 	4
scalar abilene_nodelay_network.content_distribution 	client-9 	0
scalar abilene_nodelay_network.content_distribution 	client-10 	2
scalar abilene_nodelay_network.content_distribution 	repo-0_card 	90891
scalar abilene_nodelay_network.content_distribution 	repo-0_price 	0
scalar abilene_nodelay_network.content_distribution 	repo-1_card 	90362
scalar abilene_nodelay_network.content_distribution 	repo-1_price 	0
scalar abilene_nodelay_network.content_distribution 	repo-2_card 	90927
scalar abilene_nodelay_network.content_distribution 	repo-2_price 	0
scalar abilene_nodelay_network.content_distribution 	repo-3_card 	91098
scalar abilene_nodelay_network.content_distribution 	repo-3_price 	0
scalar abilene_nodelay_network.content_distribution 	repo-4_card 	91231
scalar abilene_nodelay_network.content_distribution 	repo-4_price 	0
scalar abilene_nodelay_network.content_distribution 	repo-5_card 	90932
scalar abilene_nodelay_network.content_distribution 	repo-5_price 	0
scalar abilene_nodelay_network.content_distribution 	repo-6_card 	90752
scalar abilene_nodelay_network.content_distribution 	repo-6_price 	0
scalar abilene_nodelay_network.content_distribution 	repo-7_card 	90980
scalar abilene_nodelay_network.content_distribution 	repo-7_price 	0
scalar abilene_nodelay_network.content_distribution 	repo-8_card 	90629
scalar abilene_nodelay_network.content_distribution 	repo-8_price 	0
scalar abilene_nodelay_network.content_distribution 	repo-9_card 	91219
scalar abilene_nodelay_network.content_distribution 	repo-9_price 	0
scalar abilene_nodelay_network.content_distribution 	repo-10_card 	90979
scalar abilene_nodelay_network.content_distribution 	repo-10_price 	0
scalar abilene_nodelay_network.statistics 	stabilization_time 	36060
scalar abilene_nodelay_network.statistics 	p_hit 	0.35946540749963
scalar abilene_nodelay_network.statistics 	interests 	363130448.72727
scalar abilene_nodelay_network.statistics 	data 	153056066.09091
scalar abilene_nodelay_network.statistics 	hdistance 	0.91186354260605
scalar abilene_nodelay_network.statistics 	avg_time 	0
scalar abilene_nodelay_network.statistics 	downloads 	1979990700
scalar abilene_nodelay_network.statistics 	total_cost 	0
scalar abilene_nodelay_network.statistics 	total_replicas 	1000000
scalar abilene_nodelay_network.statistics 	"representations_downloaded 0.374702:0.0339426:0.0253126:0.0226028:0.54344:" 	0
scalar abilene_nodelay_network.statistics 	"slots_per_representation 100:233:500:833:1167:" 	0
scalar abilene_nodelay_network.statistics 	inner_hit 	0.5581004360273
scalar abilene_nodelay_network.statistics 	execution_time 	70389
scalar abilene_nodelay_network.node[0].core_layer 	interests[0] 	252788674
scalar abilene_nodelay_network.node[0].core_layer 	repo_load[0] 	72178682
scalar abilene_nodelay_network.node[0].core_layer 	data[0] 	66074864
scalar abilene_nodelay_network.node[0].core_layer 	slots_sent[face$o[1]->client[0]] 	134182029761
scalar abilene_nodelay_network.node[0].core_layer 	slots_sent[face$o[2]->node[1]] 	13306981018
scalar abilene_nodelay_network.node[0].core_layer 	slots_sent[face$o[3]->node[10]] 	3616195446
scalar abilene_nodelay_network.node[0].content_store 	p_hit[0] 	0.45308647016361
scalar abilene_nodelay_network.node[0].content_store 	hits[0] 	114535128
scalar abilene_nodelay_network.node[0].content_store 	misses[0] 	138253546
scalar abilene_nodelay_network.node[0].content_store 	decision_yes[0] 	6602319
scalar abilene_nodelay_network.node[0].content_store 	decision_no[0] 	131651227
scalar abilene_nodelay_network.node[0].content_store 	decision_ratio[0] 	0.04775515124943
scalar abilene_nodelay_network.node[0].content_store 	"representation_breakdown[0] 27369:4034:1831:1276:5154:" 	0
scalar abilene_nodelay_network.node[0].proactive_component 	hdistance[0].proactive_component 	2.6085249979479
scalar abilene_nodelay_network.node[0].proactive_component 	downloads[0].proactive_component 	14353458
scalar abilene_nodelay_network.node[0].proactive_component 	avg_time[0].proactive_component 	0
scalar abilene_nodelay_network.node[1].core_layer 	interests[1] 	417985142
scalar abilene_nodelay_network.node[1].core_layer 	repo_load[1] 	83209750
scalar abilene_nodelay_network.node[1].core_layer 	data[1] 	199580669
scalar abilene_nodelay_network.node[1].core_layer 	slots_sent[face$o[1]->client[1]] 	123043825233
scalar abilene_nodelay_network.node[1].core_layer 	slots_sent[face$o[2]->node[0]] 	15971660133
scalar abilene_nodelay_network.node[1].core_layer 	slots_sent[face$o[3]->node[10]] 	12257478389
scalar abilene_nodelay_network.node[1].core_layer 	slots_sent[face$o[4]->node[2]] 	31458543497
scalar abilene_nodelay_network.node[1].content_store 	p_hit[1] 	0.32344384863326
scalar abilene_nodelay_network.node[1].content_store 	hits[1] 	135194723
scalar abilene_nodelay_network.node[1].content_store 	misses[1] 	282790419
scalar abilene_nodelay_network.node[1].content_store 	decision_yes[1] 	19954082
scalar abilene_nodelay_network.node[1].content_store 	decision_no[1] 	262836337
scalar abilene_nodelay_network.node[1].content_store 	decision_ratio[1] 	0.070561379238241
scalar abilene_nodelay_network.node[1].content_store 	"representation_breakdown[1] 26246:5349:2298:1728:4465:" 	0
scalar abilene_nodelay_network.node[1].proactive_component 	hdistance[1].proactive_component 	2.2759674364276
scalar abilene_nodelay_network.node[1].proactive_component 	downloads[1].proactive_component 	38055653
scalar abilene_nodelay_network.node[1].proactive_component 	avg_time[1].proactive_component 	0
scalar abilene_nodelay_network.node[2].core_layer 	interests[2] 	543303974
scalar abilene_nodelay_network.node[2].core_layer 	repo_load[2] 	89705957
scalar abilene_nodelay_network.node[2].core_layer 	data[2] 	298433091
scalar abilene_nodelay_network.node[2].core_layer 	slots_sent[face$o[1]->client[2]] 	119388025976
scalar abilene_nodelay_network.node[2].core_layer 	slots_sent[face$o[2]->node[1]] 	34863314283
scalar abilene_nodelay_network.node[2].core_layer 	slots_sent[face$o[3]->node[3]] 	40982252770
scalar abilene_nodelay_network.node[2].core_layer 	slots_sent[face$o[4]->node[8]] 	16729078965
scalar abilene_nodelay_network.node[2].content_store 	p_hit[2] 	0.28559505069992
scalar abilene_nodelay_network.node[2].content_store 	hits[2] 	155164926
scalar abilene_nodelay_network.node[2].content_store 	misses[2] 	388139048
scalar abilene_nodelay_network.node[2].content_store 	decision_yes[2] 	29852795
scalar abilene_nodelay_network.node[2].content_store 	decision_no[2] 	358286253
scalar abilene_nodelay_network.node[2].content_store 	decision_ratio[2] 	0.076912630032524
scalar abilene_nodelay_network.node[2].content_store 	"representation_breakdown[2] 26815:5425:2591:1728:4275:" 	0
scalar abilene_nodelay_network.node[2].proactive_component 	hdistance[2].proactive_component 	2.2653675311174
scalar abilene_nodelay_network.node[2].proactive_component 	downloads[2].proactive_component 	54657576
scalar abilene_nodelay_network.node[2].proactive_component 	avg_time[2].proactive_component 	0
scalar abilene_nodelay_network.node[3].core_layer 	interests[3] 	513262514
scalar abilene_nodelay_network.node[3].core_layer 	repo_load[3] 	82009891
scalar abilene_nodelay_network.node[3].core_layer 	data[3] 	274158387
scalar abilene_nodelay_network.node[3].core_layer 	slots_sent[face$o[1]->client[3]] 	126980850388
scalar abilene_nodelay_network.node[3].core_layer 	slots_sent[face$o[2]->node[2]] 	41081397808
scalar abilene_nodelay_network.node[3].core_layer 	slots_sent[face$o[3]->node[4]] 	25719596492
scalar abilene_nodelay_network.node[3].core_layer 	slots_sent[face$o[4]->node[7]] 	18425762331
scalar abilene_nodelay_network.node[3].content_store 	p_hit[3] 	0.30606995779941
scalar abilene_nodelay_network.node[3].content_store 	hits[3] 	157094236
scalar abilene_nodelay_network.node[3].content_store 	misses[3] 	356168278
scalar abilene_nodelay_network.node[3].content_store 	decision_yes[3] 	27409153
scalar abilene_nodelay_network.node[3].content_store 	decision_no[3] 	328759125
scalar abilene_nodelay_network.node[3].content_store 	decision_ratio[3] 	0.076955626576042
scalar abilene_nodelay_network.node[3].content_store 	"representation_breakdown[3] 26510:5558:2500:1814:4252:" 	0
scalar abilene_nodelay_network.node[3].proactive_component 	hdistance[3].proactive_component 	2.2587880913156
scalar abilene_nodelay_network.node[3].proactive_component 	downloads[3].proactive_component 	50765574
scalar abilene_nodelay_network.node[3].proactive_component 	avg_time[3].proactive_component 	0
scalar abilene_nodelay_network.node[4].core_layer 	interests[4] 	327562371
scalar abilene_nodelay_network.node[4].core_layer 	repo_load[4] 	74915153
scalar abilene_nodelay_network.node[4].core_layer 	data[4] 	125882288
scalar abilene_nodelay_network.node[4].core_layer 	slots_sent[face$o[1]->client[4]] 	131502485044
scalar abilene_nodelay_network.node[4].core_layer 	slots_sent[face$o[2]->node[3]] 	22860872680
scalar abilene_nodelay_network.node[4].core_layer 	slots_sent[face$o[3]->node[5]] 	13980553491
scalar abilene_nodelay_network.node[4].content_store 	p_hit[4] 	0.38699478701722
scalar abilene_nodelay_network.node[4].content_store 	hits[4] 	126764930
scalar abilene_nodelay_network.node[4].content_store 	misses[4] 	200797441
scalar abilene_nodelay_network.node[4].content_store 	decision_yes[4] 	12588998
scalar abilene_nodelay_network.node[4].content_store 	decision_no[4] 	188208443
scalar abilene_nodelay_network.node[4].content_store 	decision_ratio[4] 	0.062695012134144
scalar abilene_nodelay_network.node[4].content_store 	"representation_breakdown[4] 26404:4729:2258:1531:4733:" 	0
scalar abilene_nodelay_network.node[4].proactive_component 	hdistance[4].proactive_component 	2.3580263979154
scalar abilene_nodelay_network.node[4].proactive_component 	downloads[4].proactive_component 	25283739
scalar abilene_nodelay_network.node[4].proactive_component 	avg_time[4].proactive_component 	0
scalar abilene_nodelay_network.node[5].core_layer 	interests[5] 	268878072
scalar abilene_nodelay_network.node[5].core_layer 	repo_load[5] 	83826520
scalar abilene_nodelay_network.node[5].core_layer 	data[5] 	79108052
scalar abilene_nodelay_network.node[5].core_layer 	slots_sent[face$o[1]->client[5]] 	121276879883
scalar abilene_nodelay_network.node[5].core_layer 	slots_sent[face$o[2]->node[4]] 	12321072783
scalar abilene_nodelay_network.node[5].core_layer 	slots_sent[face$o[3]->node[6]] 	8944457249
scalar abilene_nodelay_network.node[5].content_store 	p_hit[5] 	0.394020602766
scalar abilene_nodelay_network.node[5].content_store 	hits[5] 	105943500
scalar abilene_nodelay_network.node[5].content_store 	misses[5] 	162934572
scalar abilene_nodelay_network.node[5].content_store 	decision_yes[5] 	7910854
scalar abilene_nodelay_network.node[5].content_store 	decision_no[5] 	155023718
scalar abilene_nodelay_network.node[5].content_store 	decision_ratio[5] 	0.048552335473653
scalar abilene_nodelay_network.node[5].content_store 	"representation_breakdown[5] 27266:4288:1933:1392:4985:" 	0
scalar abilene_nodelay_network.node[5].proactive_component 	hdistance[5].proactive_component 	2.4003847111808
scalar abilene_nodelay_network.node[5].proactive_component 	downloads[5].proactive_component 	17244105
scalar abilene_nodelay_network.node[5].proactive_component 	avg_time[5].proactive_component 	0
scalar abilene_nodelay_network.node[6].core_layer 	interests[6] 	299019092
scalar abilene_nodelay_network.node[6].core_layer 	repo_load[6] 	73248323
scalar abilene_nodelay_network.node[6].core_layer 	data[6] 	103094299
scalar abilene_nodelay_network.node[6].core_layer 	slots_sent[face$o[1]->client[6]] 	132349956066
scalar abilene_nodelay_network.node[6].core_layer 	slots_sent[face$o[2]->node[5]] 	9775949541
scalar abilene_nodelay_network.node[6].core_layer 	slots_sent[face$o[3]->node[7]] 	19135327377
scalar abilene_nodelay_network.node[6].content_store 	p_hit[6] 	0.41026300086551
scalar abilene_nodelay_network.node[6].content_store 	hits[6] 	122676470
scalar abilene_nodelay_network.node[6].content_store 	misses[6] 	176342622
scalar abilene_nodelay_network.node[6].content_store 	decision_yes[6] 	10312898
scalar abilene_nodelay_network.node[6].content_store 	decision_no[6] 	166029724
scalar abilene_nodelay_network.node[6].content_store 	decision_ratio[6] 	0.058482163206125
scalar abilene_nodelay_network.node[6].content_store 	"representation_breakdown[6] 26932:4621:2115:1474:4811:" 	0
scalar abilene_nodelay_network.node[6].proactive_component 	hdistance[6].proactive_component 	2.3153683002335
scalar abilene_nodelay_network.node[6].proactive_component 	downloads[6].proactive_component 	22056421
scalar abilene_nodelay_network.node[6].proactive_component 	avg_time[6].proactive_component 	0
scalar abilene_nodelay_network.node[7].core_layer 	interests[7] 	396438177
scalar abilene_nodelay_network.node[7].core_layer 	repo_load[7] 	80792937
scalar abilene_nodelay_network.node[7].core_layer 	data[7] 	175535470
scalar abilene_nodelay_network.node[7].core_layer 	slots_sent[face$o[1]->client[7]] 	130891262117
scalar abilene_nodelay_network.node[7].core_layer 	slots_sent[face$o[2]->node[3]] 	17056454132
scalar abilene_nodelay_network.node[7].core_layer 	slots_sent[face$o[3]->node[6]] 	21991923120
scalar abilene_nodelay_network.node[7].core_layer 	slots_sent[face$o[4]->node[8]] 	15420766414
scalar abilene_nodelay_network.node[7].content_store 	p_hit[7] 	0.3534214869523
scalar abilene_nodelay_network.node[7].content_store 	hits[7] 	140109770
scalar abilene_nodelay_network.node[7].content_store 	misses[7] 	256328407
scalar abilene_nodelay_network.node[7].content_store 	decision_yes[7] 	17561292
scalar abilene_nodelay_network.node[7].content_store 	decision_no[7] 	238767115
scalar abilene_nodelay_network.node[7].content_store 	decision_ratio[7] 	0.068510908352035
scalar abilene_nodelay_network.node[7].content_store 	"representation_breakdown[7] 26510:5096:2365:1708:4478:" 	0
scalar abilene_nodelay_network.node[7].proactive_component 	hdistance[7].proactive_component 	2.1912261277273
scalar abilene_nodelay_network.node[7].proactive_component 	downloads[7].proactive_component 	35680255
scalar abilene_nodelay_network.node[7].proactive_component 	avg_time[7].proactive_component 	0
scalar abilene_nodelay_network.node[8].core_layer 	interests[8] 	382367693
scalar abilene_nodelay_network.node[8].core_layer 	repo_load[8] 	77563821
scalar abilene_nodelay_network.node[8].core_layer 	data[8] 	165354561
scalar abilene_nodelay_network.node[8].core_layer 	slots_sent[face$o[1]->client[8]] 	131741615114
scalar abilene_nodelay_network.node[8].core_layer 	slots_sent[face$o[2]->node[2]] 	14797046840
scalar abilene_nodelay_network.node[8].core_layer 	slots_sent[face$o[3]->node[7]] 	14965945611
scalar abilene_nodelay_network.node[8].core_layer 	slots_sent[face$o[4]->node[9]] 	19769141479
scalar abilene_nodelay_network.node[8].content_store 	p_hit[8] 	0.36469951189103
scalar abilene_nodelay_network.node[8].content_store 	hits[8] 	139449311
scalar abilene_nodelay_network.node[8].content_store 	misses[8] 	242918382
scalar abilene_nodelay_network.node[8].content_store 	decision_yes[8] 	16528658
scalar abilene_nodelay_network.node[8].content_store 	decision_no[8] 	226389724
scalar abilene_nodelay_network.node[8].content_store 	decision_ratio[8] 	0.068042022443571
scalar abilene_nodelay_network.node[8].content_store 	"representation_breakdown[8] 26741:5099:2319:1668:4506:" 	0
scalar abilene_nodelay_network.node[8].proactive_component 	hdistance[8].proactive_component 	2.1587229165092
scalar abilene_nodelay_network.node[8].proactive_component 	downloads[8].proactive_component 	34833212
scalar abilene_nodelay_network.node[8].proactive_component 	avg_time[8].proactive_component 	0
scalar abilene_nodelay_network.node[9].core_layer 	interests[9] 	300439472
scalar abilene_nodelay_network.node[9].core_layer 	repo_load[9] 	75544485
scalar abilene_nodelay_network.node[9].core_layer 	data[9] 	103458656
scalar abilene_nodelay_network.node[9].core_layer 	slots_sent[face$o[1]->client[9]] 	129802589144
scalar abilene_nodelay_network.node[9].core_layer 	slots_sent[face$o[2]->node[10]] 	11624880362
scalar abilene_nodelay_network.node[9].core_layer 	slots_sent[face$o[3]->node[8]] 	17429793751
scalar abilene_nodelay_network.node[9].content_store 	p_hit[9] 	0.40419566108144
scalar abilene_nodelay_network.node[9].content_store 	hits[9] 	121436331
scalar abilene_nodelay_network.node[9].content_store 	misses[9] 	179003141
scalar abilene_nodelay_network.node[9].content_store 	decision_yes[9] 	10345382
scalar abilene_nodelay_network.node[9].content_store 	decision_no[9] 	168657759
scalar abilene_nodelay_network.node[9].content_store 	decision_ratio[9] 	0.05779441602089
scalar abilene_nodelay_network.node[9].content_store 	"representation_breakdown[9] 27165:4569:2213:1572:4689:" 	0
scalar abilene_nodelay_network.node[9].proactive_component 	hdistance[9].proactive_component 	2.270728494898
scalar abilene_nodelay_network.node[9].proactive_component 	downloads[9].proactive_component 	22640790
scalar abilene_nodelay_network.node[9].proactive_component 	avg_time[9].proactive_component 	0
scalar abilene_nodelay_network.node[10].core_layer 	interests[10] 	292389755
scalar abilene_nodelay_network.node[10].core_layer 	repo_load[10] 	81961508
scalar abilene_nodelay_network.node[10].core_layer 	data[10] 	92936390
scalar abilene_nodelay_network.node[10].core_layer 	slots_sent[face$o[1]->client[10]] 	126728824700
scalar abilene_nodelay_network.node[10].core_layer 	slots_sent[face$o[2]->node[0]] 	3844678969
scalar abilene_nodelay_network.node[10].core_layer 	slots_sent[face$o[3]->node[1]] 	11323963828
scalar abilene_nodelay_network.node[10].core_layer 	slots_sent[face$o[4]->node[9]] 	10908364079
scalar abilene_nodelay_network.node[10].content_store 	p_hit[10] 	0.40183301566089
scalar abilene_nodelay_network.node[10].content_store 	hits[10] 	117491857
scalar abilene_nodelay_network.node[10].content_store 	misses[10] 	174897898
scalar abilene_nodelay_network.node[10].content_store 	decision_yes[10] 	9292302
scalar abilene_nodelay_network.node[10].content_store 	decision_no[10] 	165605596
scalar abilene_nodelay_network.node[10].content_store 	decision_ratio[10] 	0.053129866660833
scalar abilene_nodelay_network.node[10].content_store 	"representation_breakdown[10] 27693:4393:2074:1372:4881:" 	0
scalar abilene_nodelay_network.node[10].proactive_component 	hdistance[10].proactive_component 	2.2228312207695
scalar abilene_nodelay_network.node[10].proactive_component 	downloads[10].proactive_component 	22094561
scalar abilene_nodelay_network.node[10].proactive_component 	avg_time[10].proactive_component 	0
scalar abilene_nodelay_network.client[0] 	hdistance[0].real 	0.9814735606574
scalar abilene_nodelay_network.client[0] 	downloads[0].real 	179996703
scalar abilene_nodelay_network.client[0] 	avg_time[0].real 	0
scalar abilene_nodelay_network.client[1] 	hdistance[1].real 	0.92873871770728
scalar abilene_nodelay_network.client[1] 	downloads[1].real 	180004858
scalar abilene_nodelay_network.client[1] 	avg_time[1].real 	0
scalar abilene_nodelay_network.client[2] 	hdistance[2].real 	0.85937490582818
scalar abilene_nodelay_network.client[2] 	downloads[2].real 	180023339
scalar abilene_nodelay_network.client[2] 	avg_time[2].real 	0
scalar abilene_nodelay_network.client[3] 	hdistance[3].real 	0.84095117915323
scalar abilene_nodelay_network.client[3] 	downloads[3].real 	179995198
scalar abilene_nodelay_network.client[3] 	avg_time[3].real 	0
scalar abilene_nodelay_network.client[4] 	hdistance[4].real 	0.9471633626081
scalar abilene_nodelay_network.client[4] 	downloads[4].real 	180009014
scalar abilene_nodelay_network.client[4] 	avg_time[4].real 	0
scalar abilene_nodelay_network.client[5] 	hdistance[5].real 	1.0444109750719
scalar abilene_nodelay_network.client[5] 	downloads[5].real 	179992085
scalar abilene_nodelay_network.client[5] 	avg_time[5].real 	0
scalar abilene_nodelay_network.client[6] 	hdistance[6].real 	0.94742281234043
scalar abilene_nodelay_network.client[6] 	downloads[6].real 	179994964
scalar abilene_nodelay_network.client[6] 	avg_time[6].real 	0
scalar abilene_nodelay_network.client[7] 	hdistance[7].real 	0.83178156781716
scalar abilene_nodelay_network.client[7] 	downloads[7].real 	180002926
scalar abilene_nodelay_network.client[7] 	avg_time[7].real 	0
scalar abilene_nodelay_network.client[8] 	hdistance[8].real 	0.80738674801163
scalar abilene_nodelay_network.client[8] 	downloads[8].real 	179974787
scalar abilene_nodelay_network.client[8] 	avg_time[8].real 	0
scalar abilene_nodelay_network.client[9] 	hdistance[9].real 	0.89966011134093
scalar abilene_nodelay_network.client[9] 	downloads[9].real 	179991001
scalar abilene_nodelay_network.client[9] 	avg_time[9].real 	0
scalar abilene_nodelay_network.client[10] 	hdistance[10].real 	0.9421350281303
scalar abilene_nodelay_network.client[10] 	downloads[10].real 	180005825
scalar abilene_nodelay_network.client[10] 	avg_time[10].real 	0
