version 2
run General-1932-20140422-20:19:59-13041
attr D lce
attr F nrr
attr R lru
attr a 0
attr configname General
attr csize 10
attr ctlg 10^3
attr datetime 20140422-20:19:59
attr experiment General
attr inifile omnetpp.ini
attr iterationvars "$net=simple_scenario, $rep=17, $priceratiovalue=2, $a=0, $ctlg=10^3, $F=nrr, $ttl=1000, $D=lce, $R=lru, $csize=10"
attr iterationvars2 "$net=simple_scenario, $rep=17, $priceratiovalue=2, $a=0, $ctlg=10^3, $F=nrr, $ttl=1000, $D=lce, $R=lru, $csize=10, $repetition=0"
attr measurement "$net=simple_scenario, $rep=17, $priceratiovalue=2, $a=0, $ctlg=10^3, $F=nrr, $ttl=1000, $D=lce, $R=lru, $csize=10"
attr net simple_scenario
attr network networks.${net=simple_scenario}_network
attr priceratiovalue 2
attr processid 13041
attr rep 17
attr repetition 0
attr replication #0
attr resultdir results
attr runnumber 1932
attr seedset 17
attr ttl 1000

scalar . 	a 	0
scalar . 	csize 	10
scalar . 	priceratiovalue 	2
scalar . 	rep 	17
scalar . 	ttl 	1000
scalar simple_scenario_network.content_distribution 	repo-0 	3
scalar simple_scenario_network.content_distribution 	repo-1 	4
scalar simple_scenario_network.content_distribution 	client-0 	0
scalar simple_scenario_network.content_distribution 	repo-0_card 	481
scalar simple_scenario_network.content_distribution 	repo-1_card 	519
scalar simple_scenario_network.statistics 	p_hit 	0.0066253037221039
scalar simple_scenario_network.statistics 	interests 	106923.4
scalar simple_scenario_network.statistics 	data 	70930.8
scalar simple_scenario_network.statistics 	hdistance 	2.9510232658935
scalar simple_scenario_network.statistics 	avg_time 	0.001999773816
scalar simple_scenario_network.statistics 	downloads 	179963
scalar simple_scenario_network.statistics 	total_cost 	89358
scalar simple_scenario_network.node[0].core_layer 	interests[0] 	179963
scalar simple_scenario_network.node[0].core_layer 	data[0] 	178233
scalar simple_scenario_network.node[0].core_layer 	repo_int[0] 	176421
scalar simple_scenario_network.node[0].content_store 	p_hit[0] 	0.0096130871345777
scalar simple_scenario_network.node[0].content_store 	hits[0] 	1730
scalar simple_scenario_network.node[0].content_store 	misses[0] 	178233
scalar simple_scenario_network.node[1].core_layer 	interests[1] 	85688
scalar simple_scenario_network.node[1].core_layer 	data[1] 	84766
scalar simple_scenario_network.node[1].content_store 	p_hit[1] 	0.010759966389693
scalar simple_scenario_network.node[1].content_store 	hits[1] 	922
scalar simple_scenario_network.node[1].content_store 	misses[1] 	84766
scalar simple_scenario_network.node[2].core_layer 	interests[2] 	92545
scalar simple_scenario_network.node[2].core_layer 	data[2] 	91655
scalar simple_scenario_network.node[2].content_store 	p_hit[2] 	0.0096169431087579
scalar simple_scenario_network.node[2].content_store 	hits[2] 	890
scalar simple_scenario_network.node[2].content_store 	misses[2] 	91655
scalar simple_scenario_network.node[3].core_layer 	interests[3] 	84766
scalar simple_scenario_network.node[3].core_layer 	repo_load[3] 	84766
scalar simple_scenario_network.node[3].core_layer 	data[3] 	0
scalar simple_scenario_network.node[3].content_store 	p_hit[3] 	0
scalar simple_scenario_network.node[3].content_store 	hits[3] 	0
scalar simple_scenario_network.node[3].content_store 	misses[3] 	84766
scalar simple_scenario_network.node[4].core_layer 	interests[4] 	91655
scalar simple_scenario_network.node[4].core_layer 	repo_load[4] 	91655
scalar simple_scenario_network.node[4].core_layer 	data[4] 	0
scalar simple_scenario_network.node[4].content_store 	p_hit[4] 	0
scalar simple_scenario_network.node[4].content_store 	hits[4] 	0
scalar simple_scenario_network.node[4].content_store 	misses[4] 	91655
scalar simple_scenario_network.client[0] 	hdistance[0] 	2.9510232658935
scalar simple_scenario_network.client[0] 	downloads[0] 	179963
scalar simple_scenario_network.client[0] 	avg_time[0] 	0.001999773816
