version 2
run General-4066-20140425-05:52:17-16215
attr D costprob0.02
attr F nrr
attr R lru
attr a 1.2
attr configname General
attr csize 30
attr ctlg 10^3
attr datetime 20140425-05:52:17
attr experiment General
attr inifile omnetpp.ini
attr iterationvars "$net=one_cache_scenario, $rep=10, $priceratiovalue=7, $a=1.2, $ctlg=10^3, $F=nrr, $ttl=1000, $D=costprob0.02, $R=lru, $csize=30"
attr iterationvars2 "$net=one_cache_scenario, $rep=10, $priceratiovalue=7, $a=1.2, $ctlg=10^3, $F=nrr, $ttl=1000, $D=costprob0.02, $R=lru, $csize=30, $repetition=0"
attr measurement "$net=one_cache_scenario, $rep=10, $priceratiovalue=7, $a=1.2, $ctlg=10^3, $F=nrr, $ttl=1000, $D=costprob0.02, $R=lru, $csize=30"
attr net one_cache_scenario
attr network networks.${net=one_cache_scenario}_network
attr priceratiovalue 7
attr processid 16215
attr rep 10
attr repetition 0
attr replication #0
attr resultdir results
attr runnumber 4066
attr seedset 10
attr ttl 1000

scalar . 	a 	1.2
scalar . 	csize 	30
scalar . 	priceratiovalue 	7
scalar . 	rep 	10
scalar . 	ttl 	1000
scalar one_cache_scenario_network.content_distribution 	repo-0 	3
scalar one_cache_scenario_network.content_distribution 	repo-1 	4
scalar one_cache_scenario_network.content_distribution 	client-0 	0
scalar one_cache_scenario_network.content_distribution 	repo-0_card 	484
scalar one_cache_scenario_network.content_distribution 	repo-1_card 	516
scalar one_cache_scenario_network.statistics 	p_hit 	0.41157601726036
scalar one_cache_scenario_network.statistics 	interests 	59419.4
scalar one_cache_scenario_network.statistics 	data 	23309.2
scalar one_cache_scenario_network.statistics 	hdistance 	0.64550182496911
scalar one_cache_scenario_network.statistics 	avg_time 	0
scalar one_cache_scenario_network.statistics 	downloads 	180551
scalar one_cache_scenario_network.statistics 	total_cost 	26964
scalar one_cache_scenario_network.statistics 	interests_sent 	180551
scalar one_cache_scenario_network.node[0].core_layer 	interests[0] 	180551
scalar one_cache_scenario_network.node[0].core_layer 	data[0] 	58273
scalar one_cache_scenario_network.node[0].core_layer 	repo_int[0] 	58273
scalar one_cache_scenario_network.node[0].content_store 	p_hit[0] 	0.67724908751544
scalar one_cache_scenario_network.node[0].content_store 	hits[0] 	122278
scalar one_cache_scenario_network.node[0].content_store 	misses[0] 	58273
scalar one_cache_scenario_network.node[0].content_store 	decision_yes[0] 	534
scalar one_cache_scenario_network.node[0].content_store 	decision_no[0] 	57739
scalar one_cache_scenario_network.node[1].core_layer 	interests[1] 	32031
scalar one_cache_scenario_network.node[1].core_layer 	data[1] 	32031
scalar one_cache_scenario_network.node[1].content_store 	p_hit[1] 	0
scalar one_cache_scenario_network.node[1].content_store 	hits[1] 	0
scalar one_cache_scenario_network.node[1].content_store 	misses[1] 	32031
scalar one_cache_scenario_network.node[1].content_store 	decision_yes[1] 	0
scalar one_cache_scenario_network.node[1].content_store 	decision_no[1] 	32031
scalar one_cache_scenario_network.node[2].core_layer 	interests[2] 	26242
scalar one_cache_scenario_network.node[2].core_layer 	data[2] 	26242
scalar one_cache_scenario_network.node[2].content_store 	p_hit[2] 	0
scalar one_cache_scenario_network.node[2].content_store 	hits[2] 	0
scalar one_cache_scenario_network.node[2].content_store 	misses[2] 	26242
scalar one_cache_scenario_network.node[2].content_store 	decision_yes[2] 	0
scalar one_cache_scenario_network.node[2].content_store 	decision_no[2] 	26242
scalar one_cache_scenario_network.node[3].core_layer 	interests[3] 	32031
scalar one_cache_scenario_network.node[3].core_layer 	repo_load[3] 	32031
scalar one_cache_scenario_network.node[3].core_layer 	data[3] 	0
scalar one_cache_scenario_network.node[3].content_store 	p_hit[3] 	0
scalar one_cache_scenario_network.node[3].content_store 	hits[3] 	0
scalar one_cache_scenario_network.node[3].content_store 	misses[3] 	32031
scalar one_cache_scenario_network.node[3].content_store 	decision_yes[3] 	0
scalar one_cache_scenario_network.node[3].content_store 	decision_no[3] 	32031
scalar one_cache_scenario_network.node[4].core_layer 	interests[4] 	26242
scalar one_cache_scenario_network.node[4].core_layer 	repo_load[4] 	26242
scalar one_cache_scenario_network.node[4].core_layer 	data[4] 	0
scalar one_cache_scenario_network.node[4].content_store 	p_hit[4] 	0
scalar one_cache_scenario_network.node[4].content_store 	hits[4] 	0
scalar one_cache_scenario_network.node[4].content_store 	misses[4] 	26242
scalar one_cache_scenario_network.node[4].content_store 	decision_yes[4] 	0
scalar one_cache_scenario_network.node[4].content_store 	decision_no[4] 	26242
scalar one_cache_scenario_network.client[0] 	hdistance[0] 	0.64550182496911
scalar one_cache_scenario_network.client[0] 	downloads[0] 	180551
scalar one_cache_scenario_network.client[0] 	avg_time[0] 	0
scalar one_cache_scenario_network.client[0] 	interests_sent[0] 	180551
