version 2
run General-59-20140627-19:54:45-22894
attr D costprobprodcorr0.01
attr F nrr
attr R lru
attr a 1
attr configname General
attr csize 1e3
attr ctlg 1e5
attr datetime 20140627-19:54:45
attr experiment General
attr inifile omnetpp.ini
attr iterationvars "$net=abilene_cost, $rep=17, $priceratiovalue=10, $weights=0.333_0.333_0.334, $lambda=100, $a=1, $ctlg=1e5, $F=nrr, $ttl=1000, $D=costprobprodcorr0.01, $xi=1, $R=lru, $csize=1e3, $pricebits=0, $window=60, $variance=0.05, $mytime=1800"
attr iterationvars2 "$net=abilene_cost, $rep=17, $priceratiovalue=10, $weights=0.333_0.333_0.334, $lambda=100, $a=1, $ctlg=1e5, $F=nrr, $ttl=1000, $D=costprobprodcorr0.01, $xi=1, $R=lru, $csize=1e3, $pricebits=0, $window=60, $variance=0.05, $mytime=1800, $repetition=0"
attr lambda 100
attr measurement "$net=abilene_cost, $rep=17, $priceratiovalue=10, $weights=0.333_0.333_0.334, $lambda=100, $a=1, $ctlg=1e5, $F=nrr, $ttl=1000, $D=costprobprodcorr0.01, $xi=1, $R=lru, $csize=1e3, $pricebits=0, $window=60, $variance=0.05, $mytime=1800"
attr mytime 1800
attr net abilene_cost
attr network "networks.${net=geant_cost, abilene_cost}_network"
attr pricebits 0
attr priceratiovalue 10
attr processid 22894
attr rep 17
attr repetition 0
attr replication #0
attr resultdir results
attr runnumber 59
attr seedset 17
attr ttl 1000
attr variance 0.05
attr weights 0.333_0.333_0.334
attr window 60
attr xi 1

scalar . 	a 	1
scalar . 	csize 	1e3
scalar . 	ctlg 	1e5
scalar . 	lambda 	100
scalar . 	mytime 	1800
scalar . 	pricebits 	0
scalar . 	priceratiovalue 	10
scalar . 	rep 	17
scalar . 	ttl 	1000
scalar . 	variance 	0.05
scalar . 	window 	60
scalar . 	xi 	1
scalar abilene_cost_network.content_distribution 	repo-0 	11
scalar abilene_cost_network.content_distribution 	repo-1 	12
scalar abilene_cost_network.content_distribution 	repo-2 	13
scalar abilene_cost_network.content_distribution 	client-0 	5
scalar abilene_cost_network.content_distribution 	client-1 	0
scalar abilene_cost_network.content_distribution 	client-2 	9
scalar abilene_cost_network.content_distribution 	repo-0_card 	33432
scalar abilene_cost_network.content_distribution 	repo-1_card 	33238
scalar abilene_cost_network.content_distribution 	repo-2_card 	33330
scalar abilene_cost_network.statistics 	repo_popularity[0] 	0.29357061690373
scalar abilene_cost_network.statistics 	repo_popularity[1] 	0.31455664157995
scalar abilene_cost_network.statistics 	repo_popularity[2] 	0.39187274151631
scalar abilene_cost_network.statistics 	stabilization_time 	2082.1
scalar abilene_cost_network.node[1].face$o[4].channel 	price[1] 	0
scalar abilene_cost_network.node[1].face$o[4].channel 	represented_price[1] 	0
scalar abilene_cost_network.node[7].face$o[4].channel 	price[7] 	0
scalar abilene_cost_network.node[7].face$o[4].channel 	represented_price[7] 	0
scalar abilene_cost_network.node[10].face$o[4].channel 	price[10] 	0
scalar abilene_cost_network.node[10].face$o[4].channel 	represented_price[10] 	0
scalar abilene_cost_network.node[11].face$o[1].channel 	price[11] 	0
scalar abilene_cost_network.node[11].face$o[1].channel 	represented_price[11] 	0
scalar abilene_cost_network.node[12].face$o[1].channel 	price[12] 	1
scalar abilene_cost_network.node[12].face$o[1].channel 	represented_price[12] 	1
scalar abilene_cost_network.node[13].face$o[1].channel 	price[13] 	10
scalar abilene_cost_network.node[13].face$o[1].channel 	represented_price[13] 	10
scalar abilene_cost_network.statistics 	p_hit 	0.11141662429325
scalar abilene_cost_network.statistics 	interests 	145812.42857143
scalar abilene_cost_network.statistics 	data 	107226.78571429
scalar abilene_cost_network.statistics 	hdistance 	3.3845924680686
scalar abilene_cost_network.statistics 	avg_time 	0.014663534161
scalar abilene_cost_network.statistics 	downloads 	534254
scalar abilene_cost_network.statistics 	total_cost 	790042
scalar abilene_cost_network.statistics 	total_replicas 	100000
scalar abilene_cost_network.statistics 	inner_hit 	0.42576751882064
scalar abilene_cost_network.statistics 	interests_sent 	540197
scalar abilene_cost_network.node[0].core_layer 	interests[0] 	189031
scalar abilene_cost_network.node[0].core_layer 	data[0] 	168997
scalar abilene_cost_network.node[0].core_layer 	repo_int[0] 	306786
scalar abilene_cost_network.node[0].content_store 	p_hit[0] 	0.095481693478847
scalar abilene_cost_network.node[0].content_store 	hits[0] 	18049
scalar abilene_cost_network.node[0].content_store 	misses[0] 	170982
scalar abilene_cost_network.node[0].content_store 	decision_yes[0] 	710
scalar abilene_cost_network.node[0].content_store 	decision_no[0] 	168287
scalar abilene_cost_network.node[0].content_store 	decision_ratio[0] 	0.0042012580104972
scalar abilene_cost_network.node[0].content_store 	correction_factor[0] 	0.0027225701061802
scalar abilene_cost_network.node[0].content_store 	xi[0] 	1
scalar abilene_cost_network.node[1].core_layer 	interests[1] 	249521
scalar abilene_cost_network.node[1].core_layer 	data[1] 	184367
scalar abilene_cost_network.node[1].content_store 	p_hit[1] 	0.26111229114984
scalar abilene_cost_network.node[1].content_store 	hits[1] 	65153
scalar abilene_cost_network.node[1].content_store 	misses[1] 	184368
scalar abilene_cost_network.node[1].content_store 	decision_yes[1] 	1994
scalar abilene_cost_network.node[1].content_store 	decision_no[1] 	182373
scalar abilene_cost_network.node[1].content_store 	decision_ratio[1] 	0.010815384531939
scalar abilene_cost_network.node[1].content_store 	correction_factor[1] 	0.0027225701061802
scalar abilene_cost_network.node[1].content_store 	xi[1] 	1
scalar abilene_cost_network.node[2].core_layer 	interests[2] 	173247
scalar abilene_cost_network.node[2].core_layer 	data[2] 	147124
scalar abilene_cost_network.node[2].content_store 	p_hit[2] 	0.1506808198699
scalar abilene_cost_network.node[2].content_store 	hits[2] 	26105
scalar abilene_cost_network.node[2].content_store 	misses[2] 	147142
scalar abilene_cost_network.node[2].content_store 	decision_yes[2] 	691
scalar abilene_cost_network.node[2].content_store 	decision_no[2] 	146433
scalar abilene_cost_network.node[2].content_store 	decision_ratio[2] 	0.0046967184143987
scalar abilene_cost_network.node[2].content_store 	correction_factor[2] 	0.0027225701061802
scalar abilene_cost_network.node[2].content_store 	xi[2] 	1
scalar abilene_cost_network.node[3].core_layer 	interests[3] 	159951
scalar abilene_cost_network.node[3].core_layer 	data[3] 	138955
scalar abilene_cost_network.node[3].content_store 	p_hit[3] 	0.13125894805284
scalar abilene_cost_network.node[3].content_store 	hits[3] 	20995
scalar abilene_cost_network.node[3].content_store 	misses[3] 	138956
scalar abilene_cost_network.node[3].content_store 	decision_yes[3] 	720
scalar abilene_cost_network.node[3].content_store 	decision_no[3] 	138235
scalar abilene_cost_network.node[3].content_store 	decision_ratio[3] 	0.0051815335900112
scalar abilene_cost_network.node[3].content_store 	correction_factor[3] 	0.0027225701061802
scalar abilene_cost_network.node[3].content_store 	xi[3] 	1
scalar abilene_cost_network.node[4].core_layer 	interests[4] 	115176
scalar abilene_cost_network.node[4].core_layer 	data[4] 	111546
scalar abilene_cost_network.node[4].content_store 	p_hit[4] 	0.03151698270473
scalar abilene_cost_network.node[4].content_store 	hits[4] 	3630
scalar abilene_cost_network.node[4].content_store 	misses[4] 	111546
scalar abilene_cost_network.node[4].content_store 	decision_yes[4] 	626
scalar abilene_cost_network.node[4].content_store 	decision_no[4] 	110920
scalar abilene_cost_network.node[4].content_store 	decision_ratio[4] 	0.0056120344969788
scalar abilene_cost_network.node[4].content_store 	correction_factor[4] 	0.0027225701061802
scalar abilene_cost_network.node[4].content_store 	xi[4] 	1
scalar abilene_cost_network.node[5].core_layer 	interests[5] 	185541
scalar abilene_cost_network.node[5].core_layer 	data[5] 	156110
scalar abilene_cost_network.node[5].content_store 	p_hit[5] 	0.14933087565552
scalar abilene_cost_network.node[5].content_store 	hits[5] 	27707
scalar abilene_cost_network.node[5].content_store 	misses[5] 	157834
scalar abilene_cost_network.node[5].content_store 	decision_yes[5] 	765
scalar abilene_cost_network.node[5].content_store 	decision_no[5] 	155345
scalar abilene_cost_network.node[5].content_store 	decision_ratio[5] 	0.0049003907501121
scalar abilene_cost_network.node[5].content_store 	correction_factor[5] 	0.0027225701061802
scalar abilene_cost_network.node[5].content_store 	xi[5] 	1
scalar abilene_cost_network.node[6].core_layer 	interests[6] 	54506
scalar abilene_cost_network.node[6].core_layer 	data[6] 	43517
scalar abilene_cost_network.node[6].content_store 	p_hit[6] 	0.20162917843907
scalar abilene_cost_network.node[6].content_store 	hits[6] 	10990
scalar abilene_cost_network.node[6].content_store 	misses[6] 	43516
scalar abilene_cost_network.node[6].content_store 	decision_yes[6] 	70
scalar abilene_cost_network.node[6].content_store 	decision_no[6] 	43447
scalar abilene_cost_network.node[6].content_store 	decision_ratio[6] 	0.0016085667670106
scalar abilene_cost_network.node[6].content_store 	correction_factor[6] 	0.0027225701061802
scalar abilene_cost_network.node[6].content_store 	xi[6] 	1
scalar abilene_cost_network.node[7].core_layer 	interests[7] 	111189
scalar abilene_cost_network.node[7].core_layer 	data[7] 	97917
scalar abilene_cost_network.node[7].content_store 	p_hit[7] 	0.11931036343523
scalar abilene_cost_network.node[7].content_store 	hits[7] 	13266
scalar abilene_cost_network.node[7].content_store 	misses[7] 	97923
scalar abilene_cost_network.node[7].content_store 	decision_yes[7] 	219
scalar abilene_cost_network.node[7].content_store 	decision_no[7] 	97698
scalar abilene_cost_network.node[7].content_store 	decision_ratio[7] 	0.0022365881307638
scalar abilene_cost_network.node[7].content_store 	correction_factor[7] 	0.0027225701061802
scalar abilene_cost_network.node[7].content_store 	xi[7] 	1
scalar abilene_cost_network.node[8].core_layer 	interests[8] 	68566
scalar abilene_cost_network.node[8].core_layer 	data[8] 	61139
scalar abilene_cost_network.node[8].content_store 	p_hit[8] 	0.10830440743226
scalar abilene_cost_network.node[8].content_store 	hits[8] 	7426
scalar abilene_cost_network.node[8].content_store 	misses[8] 	61140
scalar abilene_cost_network.node[8].content_store 	decision_yes[8] 	82
scalar abilene_cost_network.node[8].content_store 	decision_no[8] 	61057
scalar abilene_cost_network.node[8].content_store 	decision_ratio[8] 	0.0013412061041234
scalar abilene_cost_network.node[8].content_store 	correction_factor[8] 	0.0027225701061802
scalar abilene_cost_network.node[8].content_store 	xi[8] 	1
scalar abilene_cost_network.node[9].core_layer 	interests[9] 	193634
scalar abilene_cost_network.node[9].core_layer 	data[9] 	171180
scalar abilene_cost_network.node[9].content_store 	p_hit[9] 	0.1044238098681
scalar abilene_cost_network.node[9].content_store 	hits[9] 	20220
scalar abilene_cost_network.node[9].content_store 	misses[9] 	173414
scalar abilene_cost_network.node[9].content_store 	decision_yes[9] 	731
scalar abilene_cost_network.node[9].content_store 	decision_no[9] 	170449
scalar abilene_cost_network.node[9].content_store 	decision_ratio[9] 	0.0042703586867625
scalar abilene_cost_network.node[9].content_store 	correction_factor[9] 	0.0027225701061802
scalar abilene_cost_network.node[9].content_store 	xi[9] 	1
scalar abilene_cost_network.node[10].core_layer 	interests[10] 	234226
scalar abilene_cost_network.node[10].core_layer 	data[10] 	220323
scalar abilene_cost_network.node[10].content_store 	p_hit[10] 	0.059352932637709
scalar abilene_cost_network.node[10].content_store 	hits[10] 	13902
scalar abilene_cost_network.node[10].content_store 	misses[10] 	220324
scalar abilene_cost_network.node[10].content_store 	decision_yes[10] 	645
scalar abilene_cost_network.node[10].content_store 	decision_no[10] 	219678
scalar abilene_cost_network.node[10].content_store 	decision_ratio[10] 	0.0029275200501083
scalar abilene_cost_network.node[10].content_store 	correction_factor[10] 	0.0027225701061802
scalar abilene_cost_network.node[10].content_store 	xi[10] 	1
scalar abilene_cost_network.node[11].core_layer 	interests[11] 	157283
scalar abilene_cost_network.node[11].core_layer 	repo_load[11] 	157283
scalar abilene_cost_network.node[11].core_layer 	data[11] 	0
scalar abilene_cost_network.node[11].content_store 	p_hit[11] 	0
scalar abilene_cost_network.node[11].content_store 	hits[11] 	0
scalar abilene_cost_network.node[11].content_store 	misses[11] 	157283
scalar abilene_cost_network.node[11].content_store 	decision_yes[11] 	0
scalar abilene_cost_network.node[11].content_store 	decision_no[11] 	157283
scalar abilene_cost_network.node[11].content_store 	decision_ratio[11] 	0
scalar abilene_cost_network.node[12].core_layer 	interests[12] 	78332
scalar abilene_cost_network.node[12].core_layer 	repo_load[12] 	78332
scalar abilene_cost_network.node[12].core_layer 	data[12] 	0
scalar abilene_cost_network.node[12].content_store 	p_hit[12] 	0
scalar abilene_cost_network.node[12].content_store 	hits[12] 	0
scalar abilene_cost_network.node[12].content_store 	misses[12] 	78332
scalar abilene_cost_network.node[12].content_store 	decision_yes[12] 	0
scalar abilene_cost_network.node[12].content_store 	decision_no[12] 	78332
scalar abilene_cost_network.node[12].content_store 	decision_ratio[12] 	0
scalar abilene_cost_network.node[13].core_layer 	interests[13] 	71171
scalar abilene_cost_network.node[13].core_layer 	repo_load[13] 	71171
scalar abilene_cost_network.node[13].core_layer 	data[13] 	0
scalar abilene_cost_network.node[13].content_store 	p_hit[13] 	0
scalar abilene_cost_network.node[13].content_store 	hits[13] 	0
scalar abilene_cost_network.node[13].content_store 	misses[13] 	71171
scalar abilene_cost_network.node[13].content_store 	decision_yes[13] 	0
scalar abilene_cost_network.node[13].content_store 	decision_no[13] 	71171
scalar abilene_cost_network.node[13].content_store 	decision_ratio[13] 	0
scalar abilene_cost_network.client[0] 	hdistance[0] 	2.9418061404051
scalar abilene_cost_network.client[0] 	downloads[0] 	177871
scalar abilene_cost_network.client[0] 	avg_time[0] 	0.013478761692
scalar abilene_cost_network.client[0] 	interests_sent[0] 	179856
scalar abilene_cost_network.client[5] 	hdistance[5] 	4.3773125772734
scalar abilene_cost_network.client[5] 	downloads[5] 	177940
scalar abilene_cost_network.client[5] 	avg_time[5] 	0.017931258125
scalar abilene_cost_network.client[5] 	interests_sent[5] 	179664
scalar abilene_cost_network.client[9] 	hdistance[9] 	2.8346586865274
scalar abilene_cost_network.client[9] 	downloads[9] 	178443
scalar abilene_cost_network.client[9] 	avg_time[9] 	0.012580582668
scalar abilene_cost_network.client[9] 	interests_sent[9] 	180677
