version 2
run General-35-20140626-17:30:15-16745
attr D costprobprodcorr0.01
attr F nrr
attr R lru
attr a 1
attr configname General
attr csize 1e3
attr ctlg 1e5
attr datetime 20140626-17:30:15
attr experiment General
attr inifile omnetpp.ini
attr iterationvars "$net=abilene_cost, $rep=2, $priceratiovalue=10, $weights=0.333_0.333_0.334, $lambda=100, $a=1, $ctlg=1e5, $F=nrr, $ttl=1000, $D=costprobprodcorr0.01, $xi=1, $R=lru, $csize=1e3, $pricebits=0, $mytime=1800"
attr iterationvars2 "$net=abilene_cost, $rep=2, $priceratiovalue=10, $weights=0.333_0.333_0.334, $lambda=100, $a=1, $ctlg=1e5, $F=nrr, $ttl=1000, $D=costprobprodcorr0.01, $xi=1, $R=lru, $csize=1e3, $pricebits=0, $mytime=1800, $repetition=0"
attr lambda 100
attr measurement "$net=abilene_cost, $rep=2, $priceratiovalue=10, $weights=0.333_0.333_0.334, $lambda=100, $a=1, $ctlg=1e5, $F=nrr, $ttl=1000, $D=costprobprodcorr0.01, $xi=1, $R=lru, $csize=1e3, $pricebits=0, $mytime=1800"
attr mytime 1800
attr net abilene_cost
attr network "networks.${net=geant_cost, abilene_cost}_network"
attr pricebits 0
attr priceratiovalue 10
attr processid 16745
attr rep 2
attr repetition 0
attr replication #0
attr resultdir results
attr runnumber 35
attr seedset 2
attr ttl 1000
attr weights 0.333_0.333_0.334
attr xi 1

scalar . 	a 	1
scalar . 	csize 	1e3
scalar . 	ctlg 	1e5
scalar . 	lambda 	100
scalar . 	mytime 	1800
scalar . 	pricebits 	0
scalar . 	priceratiovalue 	10
scalar . 	rep 	2
scalar . 	ttl 	1000
scalar . 	xi 	1
scalar abilene_cost_network.content_distribution 	repo-0 	11
scalar abilene_cost_network.content_distribution 	repo-1 	12
scalar abilene_cost_network.content_distribution 	repo-2 	13
scalar abilene_cost_network.content_distribution 	client-0 	5
scalar abilene_cost_network.content_distribution 	client-1 	0
scalar abilene_cost_network.content_distribution 	client-2 	9
scalar abilene_cost_network.content_distribution 	repo-0_card 	33329
scalar abilene_cost_network.content_distribution 	repo-1_card 	33051
scalar abilene_cost_network.content_distribution 	repo-2_card 	33620
scalar abilene_cost_network.statistics 	repo_popularity[0] 	0.40477944494875
scalar abilene_cost_network.statistics 	repo_popularity[1] 	0.29142457969466
scalar abilene_cost_network.statistics 	repo_popularity[2] 	0.30379597535658
scalar abilene_cost_network.statistics 	stabilization_time 	1909
scalar abilene_cost_network.node[1].face$o[4].channel 	price[1] 	0
scalar abilene_cost_network.node[1].face$o[4].channel 	represented_price[1] 	0
scalar abilene_cost_network.node[7].face$o[4].channel 	price[7] 	0
scalar abilene_cost_network.node[7].face$o[4].channel 	represented_price[7] 	0
scalar abilene_cost_network.node[10].face$o[4].channel 	price[10] 	0
scalar abilene_cost_network.node[10].face$o[4].channel 	represented_price[10] 	0
scalar abilene_cost_network.node[11].face$o[1].channel 	price[11] 	0
scalar abilene_cost_network.node[11].face$o[1].channel 	represented_price[11] 	0
scalar abilene_cost_network.node[12].face$o[1].channel 	price[12] 	1
scalar abilene_cost_network.node[12].face$o[1].channel 	represented_price[12] 	1
scalar abilene_cost_network.node[13].face$o[1].channel 	price[13] 	10
scalar abilene_cost_network.node[13].face$o[1].channel 	represented_price[13] 	10
scalar abilene_cost_network.statistics 	p_hit 	0.081118534348418
scalar abilene_cost_network.statistics 	interests 	153550.42857143
scalar abilene_cost_network.statistics 	data 	114979.71428571
scalar abilene_cost_network.statistics 	hdistance 	3.7036740278229
scalar abilene_cost_network.statistics 	avg_time 	0.015171126995
scalar abilene_cost_network.statistics 	downloads 	532435
scalar abilene_cost_network.statistics 	total_cost 	783877
scalar abilene_cost_network.statistics 	total_replicas 	100000
scalar abilene_cost_network.statistics 	inner_hit 	0.32778461220618
scalar abilene_cost_network.statistics 	interests_sent 	539987
scalar abilene_cost_network.node[0].core_layer 	interests[0] 	195354
scalar abilene_cost_network.node[0].core_layer 	data[0] 	168336
scalar abilene_cost_network.node[0].core_layer 	repo_int[0] 	357911
scalar abilene_cost_network.node[0].content_store 	p_hit[0] 	0.12954431442407
scalar abilene_cost_network.node[0].content_store 	hits[0] 	25307
scalar abilene_cost_network.node[0].content_store 	misses[0] 	170047
scalar abilene_cost_network.node[0].content_store 	decision_yes[0] 	735
scalar abilene_cost_network.node[0].content_store 	decision_no[0] 	167601
scalar abilene_cost_network.node[0].content_store 	decision_ratio[0] 	0.0043662674650699
scalar abilene_cost_network.node[0].content_store 	correction_factor[0] 	0.0027225701061802
scalar abilene_cost_network.node[0].content_store 	xi[0] 	1
scalar abilene_cost_network.node[1].core_layer 	interests[1] 	227303
scalar abilene_cost_network.node[1].core_layer 	data[1] 	203700
scalar abilene_cost_network.node[1].content_store 	p_hit[1] 	0.1038349691821
scalar abilene_cost_network.node[1].content_store 	hits[1] 	23602
scalar abilene_cost_network.node[1].content_store 	misses[1] 	203701
scalar abilene_cost_network.node[1].content_store 	decision_yes[1] 	2030
scalar abilene_cost_network.node[1].content_store 	decision_no[1] 	201670
scalar abilene_cost_network.node[1].content_store 	decision_ratio[1] 	0.0099656357388316
scalar abilene_cost_network.node[1].content_store 	correction_factor[1] 	0.0027225701061802
scalar abilene_cost_network.node[1].content_store 	xi[1] 	1
scalar abilene_cost_network.node[2].core_layer 	interests[2] 	182220
scalar abilene_cost_network.node[2].core_layer 	data[2] 	171622
scalar abilene_cost_network.node[2].content_store 	p_hit[2] 	0.057375699703655
scalar abilene_cost_network.node[2].content_store 	hits[2] 	10455
scalar abilene_cost_network.node[2].content_store 	misses[2] 	171765
scalar abilene_cost_network.node[2].content_store 	decision_yes[2] 	672
scalar abilene_cost_network.node[2].content_store 	decision_no[2] 	170950
scalar abilene_cost_network.node[2].content_store 	decision_ratio[2] 	0.0039155819184021
scalar abilene_cost_network.node[2].content_store 	correction_factor[2] 	0.0027225701061802
scalar abilene_cost_network.node[2].content_store 	xi[2] 	1
scalar abilene_cost_network.node[3].core_layer 	interests[3] 	180902
scalar abilene_cost_network.node[3].core_layer 	data[3] 	146950
scalar abilene_cost_network.node[3].content_store 	p_hit[3] 	0.18768172822854
scalar abilene_cost_network.node[3].content_store 	hits[3] 	33952
scalar abilene_cost_network.node[3].content_store 	misses[3] 	146950
scalar abilene_cost_network.node[3].content_store 	decision_yes[3] 	680
scalar abilene_cost_network.node[3].content_store 	decision_no[3] 	146270
scalar abilene_cost_network.node[3].content_store 	decision_ratio[3] 	0.0046274242939775
scalar abilene_cost_network.node[3].content_store 	correction_factor[3] 	0.0027225701061802
scalar abilene_cost_network.node[3].content_store 	xi[3] 	1
scalar abilene_cost_network.node[4].core_layer 	interests[4] 	125954
scalar abilene_cost_network.node[4].core_layer 	data[4] 	122744
scalar abilene_cost_network.node[4].content_store 	p_hit[4] 	0.025485494704416
scalar abilene_cost_network.node[4].content_store 	hits[4] 	3210
scalar abilene_cost_network.node[4].content_store 	misses[4] 	122744
scalar abilene_cost_network.node[4].content_store 	decision_yes[4] 	645
scalar abilene_cost_network.node[4].content_store 	decision_no[4] 	122099
scalar abilene_cost_network.node[4].content_store 	decision_ratio[4] 	0.0052548393404158
scalar abilene_cost_network.node[4].content_store 	correction_factor[4] 	0.0027225701061802
scalar abilene_cost_network.node[4].content_store 	xi[4] 	1
scalar abilene_cost_network.node[5].core_layer 	interests[5] 	183706
scalar abilene_cost_network.node[5].core_layer 	data[5] 	169433
scalar abilene_cost_network.node[5].content_store 	p_hit[5] 	0.052638454922539
scalar abilene_cost_network.node[5].content_store 	hits[5] 	9670
scalar abilene_cost_network.node[5].content_store 	misses[5] 	174036
scalar abilene_cost_network.node[5].content_store 	decision_yes[5] 	693
scalar abilene_cost_network.node[5].content_store 	decision_no[5] 	168740
scalar abilene_cost_network.node[5].content_store 	decision_ratio[5] 	0.0040901123157826
scalar abilene_cost_network.node[5].content_store 	correction_factor[5] 	0.0027225701061802
scalar abilene_cost_network.node[5].content_store 	xi[5] 	1
scalar abilene_cost_network.node[6].core_layer 	interests[6] 	51721
scalar abilene_cost_network.node[6].core_layer 	data[6] 	45937
scalar abilene_cost_network.node[6].content_store 	p_hit[6] 	0.11183078440092
scalar abilene_cost_network.node[6].content_store 	hits[6] 	5784
scalar abilene_cost_network.node[6].content_store 	misses[6] 	45937
scalar abilene_cost_network.node[6].content_store 	decision_yes[6] 	64
scalar abilene_cost_network.node[6].content_store 	decision_no[6] 	45873
scalar abilene_cost_network.node[6].content_store 	decision_ratio[6] 	0.0013932124431286
scalar abilene_cost_network.node[6].content_store 	correction_factor[6] 	0.0027225701061802
scalar abilene_cost_network.node[6].content_store 	xi[6] 	1
scalar abilene_cost_network.node[7].core_layer 	interests[7] 	115200
scalar abilene_cost_network.node[7].core_layer 	data[7] 	91358
scalar abilene_cost_network.node[7].content_store 	p_hit[7] 	0.20694444444444
scalar abilene_cost_network.node[7].content_store 	hits[7] 	23840
scalar abilene_cost_network.node[7].content_store 	misses[7] 	91360
scalar abilene_cost_network.node[7].content_store 	decision_yes[7] 	193
scalar abilene_cost_network.node[7].content_store 	decision_no[7] 	91165
scalar abilene_cost_network.node[7].content_store 	decision_ratio[7] 	0.0021125681385319
scalar abilene_cost_network.node[7].content_store 	correction_factor[7] 	0.0027225701061802
scalar abilene_cost_network.node[7].content_store 	xi[7] 	1
scalar abilene_cost_network.node[8].core_layer 	interests[8] 	74706
scalar abilene_cost_network.node[8].core_layer 	data[8] 	57513
scalar abilene_cost_network.node[8].content_store 	p_hit[8] 	0.23014215725645
scalar abilene_cost_network.node[8].content_store 	hits[8] 	17193
scalar abilene_cost_network.node[8].content_store 	misses[8] 	57513
scalar abilene_cost_network.node[8].content_store 	decision_yes[8] 	48
scalar abilene_cost_network.node[8].content_store 	decision_no[8] 	57465
scalar abilene_cost_network.node[8].content_store 	decision_ratio[8] 	0.00083459391789682
scalar abilene_cost_network.node[8].content_store 	correction_factor[8] 	0.0027225701061802
scalar abilene_cost_network.node[8].content_store 	xi[8] 	1
scalar abilene_cost_network.node[9].core_layer 	interests[9] 	190306
scalar abilene_cost_network.node[9].core_layer 	data[9] 	173442
scalar abilene_cost_network.node[9].content_store 	p_hit[9] 	0.082109865164525
scalar abilene_cost_network.node[9].content_store 	hits[9] 	15626
scalar abilene_cost_network.node[9].content_store 	misses[9] 	174680
scalar abilene_cost_network.node[9].content_store 	decision_yes[9] 	720
scalar abilene_cost_network.node[9].content_store 	decision_no[9] 	172722
scalar abilene_cost_network.node[9].content_store 	decision_ratio[9] 	0.0041512436434082
scalar abilene_cost_network.node[9].content_store 	correction_factor[9] 	0.0027225701061802
scalar abilene_cost_network.node[9].content_store 	xi[9] 	1
scalar abilene_cost_network.node[10].core_layer 	interests[10] 	264423
scalar abilene_cost_network.node[10].core_layer 	data[10] 	258681
scalar abilene_cost_network.node[10].content_store 	p_hit[10] 	0.021715206317151
scalar abilene_cost_network.node[10].content_store 	hits[10] 	5742
scalar abilene_cost_network.node[10].content_store 	misses[10] 	258681
scalar abilene_cost_network.node[10].content_store 	decision_yes[10] 	614
scalar abilene_cost_network.node[10].content_store 	decision_no[10] 	258067
scalar abilene_cost_network.node[10].content_store 	decision_ratio[10] 	0.0023735798145206
scalar abilene_cost_network.node[10].content_store 	correction_factor[10] 	0.0027225701061802
scalar abilene_cost_network.node[10].content_store 	xi[10] 	1
scalar abilene_cost_network.node[11].core_layer 	interests[11] 	212305
scalar abilene_cost_network.node[11].core_layer 	repo_load[11] 	212305
scalar abilene_cost_network.node[11].core_layer 	data[11] 	0
scalar abilene_cost_network.node[11].content_store 	p_hit[11] 	0
scalar abilene_cost_network.node[11].content_store 	hits[11] 	0
scalar abilene_cost_network.node[11].content_store 	misses[11] 	212305
scalar abilene_cost_network.node[11].content_store 	decision_yes[11] 	0
scalar abilene_cost_network.node[11].content_store 	decision_no[11] 	212305
scalar abilene_cost_network.node[11].content_store 	decision_ratio[11] 	0
scalar abilene_cost_network.node[12].core_layer 	interests[12] 	74687
scalar abilene_cost_network.node[12].core_layer 	repo_load[12] 	74687
scalar abilene_cost_network.node[12].core_layer 	data[12] 	0
scalar abilene_cost_network.node[12].content_store 	p_hit[12] 	0
scalar abilene_cost_network.node[12].content_store 	hits[12] 	0
scalar abilene_cost_network.node[12].content_store 	misses[12] 	74687
scalar abilene_cost_network.node[12].content_store 	decision_yes[12] 	0
scalar abilene_cost_network.node[12].content_store 	decision_no[12] 	74687
scalar abilene_cost_network.node[12].content_store 	decision_ratio[12] 	0
scalar abilene_cost_network.node[13].core_layer 	interests[13] 	70919
scalar abilene_cost_network.node[13].core_layer 	repo_load[13] 	70919
scalar abilene_cost_network.node[13].core_layer 	data[13] 	0
scalar abilene_cost_network.node[13].content_store 	p_hit[13] 	0
scalar abilene_cost_network.node[13].content_store 	hits[13] 	0
scalar abilene_cost_network.node[13].content_store 	misses[13] 	70919
scalar abilene_cost_network.node[13].content_store 	decision_yes[13] 	0
scalar abilene_cost_network.node[13].content_store 	decision_no[13] 	70919
scalar abilene_cost_network.node[13].content_store 	decision_ratio[13] 	0
scalar abilene_cost_network.client[0] 	hdistance[0] 	3.1696828143991
scalar abilene_cost_network.client[0] 	downloads[0] 	178539
scalar abilene_cost_network.client[0] 	avg_time[0] 	0.013365782898
scalar abilene_cost_network.client[0] 	interests_sent[0] 	180250
scalar abilene_cost_network.client[5] 	hdistance[5] 	4.9939136734148
scalar abilene_cost_network.client[5] 	downloads[5] 	175311
scalar abilene_cost_network.client[5] 	avg_time[5] 	0.020408657116
scalar abilene_cost_network.client[5] 	interests_sent[5] 	179914
scalar abilene_cost_network.client[9] 	hdistance[9] 	2.9474255956547
scalar abilene_cost_network.client[9] 	downloads[9] 	178585
scalar abilene_cost_network.client[9] 	avg_time[9] 	0.011738940973
scalar abilene_cost_network.client[9] 	interests_sent[9] 	179823
