version 2
run General-35-20140627-19:29:02-22817
attr D costprobprodcorr0.01
attr F nrr
attr R lru
attr a 1
attr configname General
attr csize 1e3
attr ctlg 1e5
attr datetime 20140627-19:29:02
attr experiment General
attr inifile omnetpp.ini
attr iterationvars "$net=abilene_cost, $rep=14, $priceratiovalue=10, $weights=0.333_0.333_0.334, $lambda=100, $a=1, $ctlg=1e5, $F=nrr, $ttl=1000, $D=costprobprodcorr0.01, $xi=1, $R=lru, $csize=1e3, $pricebits=0, $window=60, $variance=0.05, $mytime=1800"
attr iterationvars2 "$net=abilene_cost, $rep=14, $priceratiovalue=10, $weights=0.333_0.333_0.334, $lambda=100, $a=1, $ctlg=1e5, $F=nrr, $ttl=1000, $D=costprobprodcorr0.01, $xi=1, $R=lru, $csize=1e3, $pricebits=0, $window=60, $variance=0.05, $mytime=1800, $repetition=0"
attr lambda 100
attr measurement "$net=abilene_cost, $rep=14, $priceratiovalue=10, $weights=0.333_0.333_0.334, $lambda=100, $a=1, $ctlg=1e5, $F=nrr, $ttl=1000, $D=costprobprodcorr0.01, $xi=1, $R=lru, $csize=1e3, $pricebits=0, $window=60, $variance=0.05, $mytime=1800"
attr mytime 1800
attr net abilene_cost
attr network "networks.${net=geant_cost, abilene_cost}_network"
attr pricebits 0
attr priceratiovalue 10
attr processid 22817
attr rep 14
attr repetition 0
attr replication #0
attr resultdir results
attr runnumber 35
attr seedset 14
attr ttl 1000
attr variance 0.05
attr weights 0.333_0.333_0.334
attr window 60
attr xi 1

scalar . 	a 	1
scalar . 	csize 	1e3
scalar . 	ctlg 	1e5
scalar . 	lambda 	100
scalar . 	mytime 	1800
scalar . 	pricebits 	0
scalar . 	priceratiovalue 	10
scalar . 	rep 	14
scalar . 	ttl 	1000
scalar . 	variance 	0.05
scalar . 	window 	60
scalar . 	xi 	1
scalar abilene_cost_network.content_distribution 	repo-0 	11
scalar abilene_cost_network.content_distribution 	repo-1 	12
scalar abilene_cost_network.content_distribution 	repo-2 	13
scalar abilene_cost_network.content_distribution 	client-0 	5
scalar abilene_cost_network.content_distribution 	client-1 	0
scalar abilene_cost_network.content_distribution 	client-2 	9
scalar abilene_cost_network.content_distribution 	repo-0_card 	32966
scalar abilene_cost_network.content_distribution 	repo-1_card 	33555
scalar abilene_cost_network.content_distribution 	repo-2_card 	33479
scalar abilene_cost_network.statistics 	repo_popularity[0] 	0.41551934442987
scalar abilene_cost_network.statistics 	repo_popularity[1] 	0.31847271720617
scalar abilene_cost_network.statistics 	repo_popularity[2] 	0.26600793836396
scalar abilene_cost_network.statistics 	stabilization_time 	2130.7
scalar abilene_cost_network.node[1].face$o[4].channel 	price[1] 	0
scalar abilene_cost_network.node[1].face$o[4].channel 	represented_price[1] 	0
scalar abilene_cost_network.node[7].face$o[4].channel 	price[7] 	0
scalar abilene_cost_network.node[7].face$o[4].channel 	represented_price[7] 	0
scalar abilene_cost_network.node[10].face$o[4].channel 	price[10] 	0
scalar abilene_cost_network.node[10].face$o[4].channel 	represented_price[10] 	0
scalar abilene_cost_network.node[11].face$o[1].channel 	price[11] 	0
scalar abilene_cost_network.node[11].face$o[1].channel 	represented_price[11] 	0
scalar abilene_cost_network.node[12].face$o[1].channel 	price[12] 	1
scalar abilene_cost_network.node[12].face$o[1].channel 	represented_price[12] 	1
scalar abilene_cost_network.node[13].face$o[1].channel 	price[13] 	10
scalar abilene_cost_network.node[13].face$o[1].channel 	represented_price[13] 	10
scalar abilene_cost_network.statistics 	p_hit 	0.078534328103063
scalar abilene_cost_network.statistics 	interests 	151257.78571429
scalar abilene_cost_network.statistics 	data 	112755.5
scalar abilene_cost_network.statistics 	hdistance 	3.6589696984705
scalar abilene_cost_network.statistics 	avg_time 	0.014546901486
scalar abilene_cost_network.statistics 	downloads 	532383
scalar abilene_cost_network.statistics 	total_cost 	790782
scalar abilene_cost_network.statistics 	total_replicas 	100000
scalar abilene_cost_network.statistics 	inner_hit 	0.31239727789956
scalar abilene_cost_network.statistics 	interests_sent 	539036
scalar abilene_cost_network.node[0].core_layer 	interests[0] 	196379
scalar abilene_cost_network.node[0].core_layer 	data[0] 	164996
scalar abilene_cost_network.node[0].core_layer 	repo_int[0] 	366068
scalar abilene_cost_network.node[0].content_store 	p_hit[0] 	0.15291859109172
scalar abilene_cost_network.node[0].content_store 	hits[0] 	30030
scalar abilene_cost_network.node[0].content_store 	misses[0] 	166349
scalar abilene_cost_network.node[0].content_store 	decision_yes[0] 	790
scalar abilene_cost_network.node[0].content_store 	decision_no[0] 	164206
scalar abilene_cost_network.node[0].content_store 	decision_ratio[0] 	0.0047879948604815
scalar abilene_cost_network.node[0].content_store 	correction_factor[0] 	0.0027225701061802
scalar abilene_cost_network.node[0].content_store 	xi[0] 	1
scalar abilene_cost_network.node[1].core_layer 	interests[1] 	236351
scalar abilene_cost_network.node[1].core_layer 	data[1] 	194312
scalar abilene_cost_network.node[1].content_store 	p_hit[1] 	0.17786681672597
scalar abilene_cost_network.node[1].content_store 	hits[1] 	42039
scalar abilene_cost_network.node[1].content_store 	misses[1] 	194312
scalar abilene_cost_network.node[1].content_store 	decision_yes[1] 	2083
scalar abilene_cost_network.node[1].content_store 	decision_no[1] 	192229
scalar abilene_cost_network.node[1].content_store 	decision_ratio[1] 	0.010719873193627
scalar abilene_cost_network.node[1].content_store 	correction_factor[1] 	0.0027225701061802
scalar abilene_cost_network.node[1].content_store 	xi[1] 	1
scalar abilene_cost_network.node[2].core_layer 	interests[2] 	172419
scalar abilene_cost_network.node[2].core_layer 	data[2] 	157178
scalar abilene_cost_network.node[2].content_store 	p_hit[2] 	0.08839513046706
scalar abilene_cost_network.node[2].content_store 	hits[2] 	15241
scalar abilene_cost_network.node[2].content_store 	misses[2] 	157178
scalar abilene_cost_network.node[2].content_store 	decision_yes[2] 	689
scalar abilene_cost_network.node[2].content_store 	decision_no[2] 	156489
scalar abilene_cost_network.node[2].content_store 	decision_ratio[2] 	0.00438356512998
scalar abilene_cost_network.node[2].content_store 	correction_factor[2] 	0.0027225701061802
scalar abilene_cost_network.node[2].content_store 	xi[2] 	1
scalar abilene_cost_network.node[3].core_layer 	interests[3] 	161938
scalar abilene_cost_network.node[3].core_layer 	data[3] 	154386
scalar abilene_cost_network.node[3].content_store 	p_hit[3] 	0.04662895676123
scalar abilene_cost_network.node[3].content_store 	hits[3] 	7551
scalar abilene_cost_network.node[3].content_store 	misses[3] 	154387
scalar abilene_cost_network.node[3].content_store 	decision_yes[3] 	704
scalar abilene_cost_network.node[3].content_store 	decision_no[3] 	153682
scalar abilene_cost_network.node[3].content_store 	decision_ratio[3] 	0.0045599989636366
scalar abilene_cost_network.node[3].content_store 	correction_factor[3] 	0.0027225701061802
scalar abilene_cost_network.node[3].content_store 	xi[3] 	1
scalar abilene_cost_network.node[4].core_layer 	interests[4] 	124569
scalar abilene_cost_network.node[4].core_layer 	data[4] 	121608
scalar abilene_cost_network.node[4].content_store 	p_hit[4] 	0.023761931138566
scalar abilene_cost_network.node[4].content_store 	hits[4] 	2960
scalar abilene_cost_network.node[4].content_store 	misses[4] 	121609
scalar abilene_cost_network.node[4].content_store 	decision_yes[4] 	654
scalar abilene_cost_network.node[4].content_store 	decision_no[4] 	120954
scalar abilene_cost_network.node[4].content_store 	decision_ratio[4] 	0.0053779356621275
scalar abilene_cost_network.node[4].content_store 	correction_factor[4] 	0.0027225701061802
scalar abilene_cost_network.node[4].content_store 	xi[4] 	1
scalar abilene_cost_network.node[5].core_layer 	interests[5] 	184385
scalar abilene_cost_network.node[5].core_layer 	data[5] 	161547
scalar abilene_cost_network.node[5].content_store 	p_hit[5] 	0.10114705643084
scalar abilene_cost_network.node[5].content_store 	hits[5] 	18650
scalar abilene_cost_network.node[5].content_store 	misses[5] 	165735
scalar abilene_cost_network.node[5].content_store 	decision_yes[5] 	711
scalar abilene_cost_network.node[5].content_store 	decision_no[5] 	160836
scalar abilene_cost_network.node[5].content_store 	decision_ratio[5] 	0.0044011959367862
scalar abilene_cost_network.node[5].content_store 	correction_factor[5] 	0.0027225701061802
scalar abilene_cost_network.node[5].content_store 	xi[5] 	1
scalar abilene_cost_network.node[6].core_layer 	interests[6] 	47398
scalar abilene_cost_network.node[6].core_layer 	data[6] 	39636
scalar abilene_cost_network.node[6].content_store 	p_hit[6] 	0.16378328199502
scalar abilene_cost_network.node[6].content_store 	hits[6] 	7763
scalar abilene_cost_network.node[6].content_store 	misses[6] 	39635
scalar abilene_cost_network.node[6].content_store 	decision_yes[6] 	67
scalar abilene_cost_network.node[6].content_store 	decision_no[6] 	39569
scalar abilene_cost_network.node[6].content_store 	decision_ratio[6] 	0.0016903824805732
scalar abilene_cost_network.node[6].content_store 	correction_factor[6] 	0.0027225701061802
scalar abilene_cost_network.node[6].content_store 	xi[6] 	1
scalar abilene_cost_network.node[7].core_layer 	interests[7] 	108537
scalar abilene_cost_network.node[7].core_layer 	data[7] 	88522
scalar abilene_cost_network.node[7].content_store 	p_hit[7] 	0.184361093452
scalar abilene_cost_network.node[7].content_store 	hits[7] 	20010
scalar abilene_cost_network.node[7].content_store 	misses[7] 	88527
scalar abilene_cost_network.node[7].content_store 	decision_yes[7] 	201
scalar abilene_cost_network.node[7].content_store 	decision_no[7] 	88321
scalar abilene_cost_network.node[7].content_store 	decision_ratio[7] 	0.0022706219922731
scalar abilene_cost_network.node[7].content_store 	correction_factor[7] 	0.0027225701061802
scalar abilene_cost_network.node[7].content_store 	xi[7] 	1
scalar abilene_cost_network.node[8].core_layer 	interests[8] 	56311
scalar abilene_cost_network.node[8].core_layer 	data[8] 	48122
scalar abilene_cost_network.node[8].content_store 	p_hit[8] 	0.14542451741223
scalar abilene_cost_network.node[8].content_store 	hits[8] 	8189
scalar abilene_cost_network.node[8].content_store 	misses[8] 	48122
scalar abilene_cost_network.node[8].content_store 	decision_yes[8] 	77
scalar abilene_cost_network.node[8].content_store 	decision_no[8] 	48045
scalar abilene_cost_network.node[8].content_store 	decision_ratio[8] 	0.0016000997464777
scalar abilene_cost_network.node[8].content_store 	correction_factor[8] 	0.0027225701061802
scalar abilene_cost_network.node[8].content_store 	xi[8] 	1
scalar abilene_cost_network.node[9].core_layer 	interests[9] 	184386
scalar abilene_cost_network.node[9].core_layer 	data[9] 	175221
scalar abilene_cost_network.node[9].content_store 	p_hit[9] 	0.043674682459623
scalar abilene_cost_network.node[9].content_store 	hits[9] 	8053
scalar abilene_cost_network.node[9].content_store 	misses[9] 	176333
scalar abilene_cost_network.node[9].content_store 	decision_yes[9] 	699
scalar abilene_cost_network.node[9].content_store 	decision_no[9] 	174522
scalar abilene_cost_network.node[9].content_store 	decision_ratio[9] 	0.0039892478641259
scalar abilene_cost_network.node[9].content_store 	correction_factor[9] 	0.0027225701061802
scalar abilene_cost_network.node[9].content_store 	xi[9] 	1
scalar abilene_cost_network.node[10].core_layer 	interests[10] 	278868
scalar abilene_cost_network.node[10].core_layer 	data[10] 	273049
scalar abilene_cost_network.node[10].content_store 	p_hit[10] 	0.020866503148443
scalar abilene_cost_network.node[10].content_store 	hits[10] 	5819
scalar abilene_cost_network.node[10].content_store 	misses[10] 	273049
scalar abilene_cost_network.node[10].content_store 	decision_yes[10] 	623
scalar abilene_cost_network.node[10].content_store 	decision_no[10] 	272426
scalar abilene_cost_network.node[10].content_store 	decision_ratio[10] 	0.0022816417566078
scalar abilene_cost_network.node[10].content_store 	correction_factor[10] 	0.0027225701061802
scalar abilene_cost_network.node[10].content_store 	xi[10] 	1
scalar abilene_cost_network.node[11].core_layer 	interests[11] 	218993
scalar abilene_cost_network.node[11].core_layer 	repo_load[11] 	218993
scalar abilene_cost_network.node[11].core_layer 	data[11] 	0
scalar abilene_cost_network.node[11].content_store 	p_hit[11] 	0
scalar abilene_cost_network.node[11].content_store 	hits[11] 	0
scalar abilene_cost_network.node[11].content_store 	misses[11] 	218993
scalar abilene_cost_network.node[11].content_store 	decision_yes[11] 	0
scalar abilene_cost_network.node[11].content_store 	decision_no[11] 	218993
scalar abilene_cost_network.node[11].content_store 	decision_ratio[11] 	0
scalar abilene_cost_network.node[12].core_layer 	interests[12] 	75552
scalar abilene_cost_network.node[12].core_layer 	repo_load[12] 	75552
scalar abilene_cost_network.node[12].core_layer 	data[12] 	0
scalar abilene_cost_network.node[12].content_store 	p_hit[12] 	0
scalar abilene_cost_network.node[12].content_store 	hits[12] 	0
scalar abilene_cost_network.node[12].content_store 	misses[12] 	75552
scalar abilene_cost_network.node[12].content_store 	decision_yes[12] 	0
scalar abilene_cost_network.node[12].content_store 	decision_no[12] 	75552
scalar abilene_cost_network.node[12].content_store 	decision_ratio[12] 	0
scalar abilene_cost_network.node[13].core_layer 	interests[13] 	71523
scalar abilene_cost_network.node[13].core_layer 	repo_load[13] 	71523
scalar abilene_cost_network.node[13].core_layer 	data[13] 	0
scalar abilene_cost_network.node[13].content_store 	p_hit[13] 	0
scalar abilene_cost_network.node[13].content_store 	hits[13] 	0
scalar abilene_cost_network.node[13].content_store 	misses[13] 	71523
scalar abilene_cost_network.node[13].content_store 	decision_yes[13] 	0
scalar abilene_cost_network.node[13].content_store 	decision_no[13] 	71523
scalar abilene_cost_network.node[13].content_store 	decision_ratio[13] 	0
scalar abilene_cost_network.client[0] 	hdistance[0] 	3.045491420355
scalar abilene_cost_network.client[0] 	downloads[0] 	178737
scalar abilene_cost_network.client[0] 	avg_time[0] 	0.012436461621
scalar abilene_cost_network.client[0] 	interests_sent[0] 	180090
scalar abilene_cost_network.client[5] 	hdistance[5] 	4.9601588638277
scalar abilene_cost_network.client[5] 	downloads[5] 	175748
scalar abilene_cost_network.client[5] 	avg_time[5] 	0.01995709158
scalar abilene_cost_network.client[5] 	interests_sent[5] 	179936
scalar abilene_cost_network.client[9] 	hdistance[9] 	2.9712588112289
scalar abilene_cost_network.client[9] 	downloads[9] 	177898
scalar abilene_cost_network.client[9] 	avg_time[9] 	0.011247151259
scalar abilene_cost_network.client[9] 	interests_sent[9] 	179010
