version 2
run General-43-20140626-18:06:13-10927
attr D costprobprodcorr0.01
attr F nrr
attr R lru
attr a 1
attr configname General
attr csize 1e3
attr ctlg 1e5
attr datetime 20140626-18:06:13
attr experiment General
attr inifile omnetpp.ini
attr iterationvars "$net=abilene_cost, $rep=6, $priceratiovalue=10, $weights=0.333_0.333_0.334, $lambda=100, $a=1, $ctlg=1e5, $F=nrr, $ttl=1000, $D=costprobprodcorr0.01, $xi=1, $R=lru, $csize=1e3, $pricebits=0, $mytime=1800"
attr iterationvars2 "$net=abilene_cost, $rep=6, $priceratiovalue=10, $weights=0.333_0.333_0.334, $lambda=100, $a=1, $ctlg=1e5, $F=nrr, $ttl=1000, $D=costprobprodcorr0.01, $xi=1, $R=lru, $csize=1e3, $pricebits=0, $mytime=1800, $repetition=0"
attr lambda 100
attr measurement "$net=abilene_cost, $rep=6, $priceratiovalue=10, $weights=0.333_0.333_0.334, $lambda=100, $a=1, $ctlg=1e5, $F=nrr, $ttl=1000, $D=costprobprodcorr0.01, $xi=1, $R=lru, $csize=1e3, $pricebits=0, $mytime=1800"
attr mytime 1800
attr net abilene_cost
attr network "networks.${net=geant_cost, abilene_cost}_network"
attr pricebits 0
attr priceratiovalue 10
attr processid 10927
attr rep 6
attr repetition 0
attr replication #0
attr resultdir results
attr runnumber 43
attr seedset 6
attr ttl 1000
attr weights 0.333_0.333_0.334
attr xi 1

scalar . 	a 	1
scalar . 	csize 	1e3
scalar . 	ctlg 	1e5
scalar . 	lambda 	100
scalar . 	mytime 	1800
scalar . 	pricebits 	0
scalar . 	priceratiovalue 	10
scalar . 	rep 	6
scalar . 	ttl 	1000
scalar . 	xi 	1
scalar abilene_cost_network.content_distribution 	repo-0 	11
scalar abilene_cost_network.content_distribution 	repo-1 	12
scalar abilene_cost_network.content_distribution 	repo-2 	13
scalar abilene_cost_network.content_distribution 	client-0 	5
scalar abilene_cost_network.content_distribution 	client-1 	0
scalar abilene_cost_network.content_distribution 	client-2 	9
scalar abilene_cost_network.content_distribution 	repo-0_card 	33436
scalar abilene_cost_network.content_distribution 	repo-1_card 	33143
scalar abilene_cost_network.content_distribution 	repo-2_card 	33421
scalar abilene_cost_network.statistics 	repo_popularity[0] 	0.39107817255936
scalar abilene_cost_network.statistics 	repo_popularity[1] 	0.30968687902184
scalar abilene_cost_network.statistics 	repo_popularity[2] 	0.2992349484188
scalar abilene_cost_network.statistics 	stabilization_time 	2579.9
scalar abilene_cost_network.node[1].face$o[4].channel 	price[1] 	0
scalar abilene_cost_network.node[1].face$o[4].channel 	represented_price[1] 	0
scalar abilene_cost_network.node[7].face$o[4].channel 	price[7] 	0
scalar abilene_cost_network.node[7].face$o[4].channel 	represented_price[7] 	0
scalar abilene_cost_network.node[10].face$o[4].channel 	price[10] 	0
scalar abilene_cost_network.node[10].face$o[4].channel 	represented_price[10] 	0
scalar abilene_cost_network.node[11].face$o[1].channel 	price[11] 	0
scalar abilene_cost_network.node[11].face$o[1].channel 	represented_price[11] 	0
scalar abilene_cost_network.node[12].face$o[1].channel 	price[12] 	1
scalar abilene_cost_network.node[12].face$o[1].channel 	represented_price[12] 	1
scalar abilene_cost_network.node[13].face$o[1].channel 	price[13] 	10
scalar abilene_cost_network.node[13].face$o[1].channel 	represented_price[13] 	10
scalar abilene_cost_network.statistics 	p_hit 	0.08393335638445
scalar abilene_cost_network.statistics 	interests 	152662.78571429
scalar abilene_cost_network.statistics 	data 	114136.57142857
scalar abilene_cost_network.statistics 	hdistance 	3.6769475670589
scalar abilene_cost_network.statistics 	avg_time 	0.015168916526
scalar abilene_cost_network.statistics 	downloads 	531424
scalar abilene_cost_network.statistics 	total_cost 	773217
scalar abilene_cost_network.statistics 	total_replicas 	100000
scalar abilene_cost_network.statistics 	inner_hit 	0.33771150719576
scalar abilene_cost_network.statistics 	interests_sent 	539369
scalar abilene_cost_network.node[0].core_layer 	interests[0] 	194237
scalar abilene_cost_network.node[0].core_layer 	data[0] 	168867
scalar abilene_cost_network.node[0].core_layer 	repo_int[0] 	351956
scalar abilene_cost_network.node[0].content_store 	p_hit[0] 	0.11986387763402
scalar abilene_cost_network.node[0].content_store 	hits[0] 	23282
scalar abilene_cost_network.node[0].content_store 	misses[0] 	170955
scalar abilene_cost_network.node[0].content_store 	decision_yes[0] 	707
scalar abilene_cost_network.node[0].content_store 	decision_no[0] 	168160
scalar abilene_cost_network.node[0].content_store 	decision_ratio[0] 	0.0041867268323592
scalar abilene_cost_network.node[0].content_store 	correction_factor[0] 	0.0027225701061802
scalar abilene_cost_network.node[0].content_store 	xi[0] 	1
scalar abilene_cost_network.node[1].core_layer 	interests[1] 	225962
scalar abilene_cost_network.node[1].core_layer 	data[1] 	198803
scalar abilene_cost_network.node[1].content_store 	p_hit[1] 	0.12019277577646
scalar abilene_cost_network.node[1].content_store 	hits[1] 	27159
scalar abilene_cost_network.node[1].content_store 	misses[1] 	198803
scalar abilene_cost_network.node[1].content_store 	decision_yes[1] 	2030
scalar abilene_cost_network.node[1].content_store 	decision_no[1] 	196773
scalar abilene_cost_network.node[1].content_store 	decision_ratio[1] 	0.010211113514384
scalar abilene_cost_network.node[1].content_store 	correction_factor[1] 	0.0027225701061802
scalar abilene_cost_network.node[1].content_store 	xi[1] 	1
scalar abilene_cost_network.node[2].core_layer 	interests[2] 	173772
scalar abilene_cost_network.node[2].core_layer 	data[2] 	158830
scalar abilene_cost_network.node[2].content_store 	p_hit[2] 	0.085963216168312
scalar abilene_cost_network.node[2].content_store 	hits[2] 	14938
scalar abilene_cost_network.node[2].content_store 	misses[2] 	158834
scalar abilene_cost_network.node[2].content_store 	decision_yes[2] 	752
scalar abilene_cost_network.node[2].content_store 	decision_no[2] 	158078
scalar abilene_cost_network.node[2].content_store 	decision_ratio[2] 	0.0047346219228106
scalar abilene_cost_network.node[2].content_store 	correction_factor[2] 	0.0027225701061802
scalar abilene_cost_network.node[2].content_store 	xi[2] 	1
scalar abilene_cost_network.node[3].core_layer 	interests[3] 	157467
scalar abilene_cost_network.node[3].core_layer 	data[3] 	148490
scalar abilene_cost_network.node[3].content_store 	p_hit[3] 	0.057015120628449
scalar abilene_cost_network.node[3].content_store 	hits[3] 	8978
scalar abilene_cost_network.node[3].content_store 	misses[3] 	148489
scalar abilene_cost_network.node[3].content_store 	decision_yes[3] 	690
scalar abilene_cost_network.node[3].content_store 	decision_no[3] 	147800
scalar abilene_cost_network.node[3].content_store 	decision_ratio[3] 	0.0046467775607785
scalar abilene_cost_network.node[3].content_store 	correction_factor[3] 	0.0027225701061802
scalar abilene_cost_network.node[3].content_store 	xi[3] 	1
scalar abilene_cost_network.node[4].core_layer 	interests[4] 	118004
scalar abilene_cost_network.node[4].core_layer 	data[4] 	114406
scalar abilene_cost_network.node[4].content_store 	p_hit[4] 	0.030498966136741
scalar abilene_cost_network.node[4].content_store 	hits[4] 	3599
scalar abilene_cost_network.node[4].content_store 	misses[4] 	114405
scalar abilene_cost_network.node[4].content_store 	decision_yes[4] 	619
scalar abilene_cost_network.node[4].content_store 	decision_no[4] 	113787
scalar abilene_cost_network.node[4].content_store 	decision_ratio[4] 	0.0054105553904515
scalar abilene_cost_network.node[4].content_store 	correction_factor[4] 	0.0027225701061802
scalar abilene_cost_network.node[4].content_store 	xi[4] 	1
scalar abilene_cost_network.node[5].core_layer 	interests[5] 	183158
scalar abilene_cost_network.node[5].core_layer 	data[5] 	170759
scalar abilene_cost_network.node[5].content_store 	p_hit[5] 	0.042493366383123
scalar abilene_cost_network.node[5].content_store 	hits[5] 	7783
scalar abilene_cost_network.node[5].content_store 	misses[5] 	175375
scalar abilene_cost_network.node[5].content_store 	decision_yes[5] 	703
scalar abilene_cost_network.node[5].content_store 	decision_no[5] 	170056
scalar abilene_cost_network.node[5].content_store 	decision_ratio[5] 	0.0041169133105722
scalar abilene_cost_network.node[5].content_store 	correction_factor[5] 	0.0027225701061802
scalar abilene_cost_network.node[5].content_store 	xi[5] 	1
scalar abilene_cost_network.node[6].core_layer 	interests[6] 	66748
scalar abilene_cost_network.node[6].core_layer 	data[6] 	51437
scalar abilene_cost_network.node[6].content_store 	p_hit[6] 	0.22937016839456
scalar abilene_cost_network.node[6].content_store 	hits[6] 	15310
scalar abilene_cost_network.node[6].content_store 	misses[6] 	51438
scalar abilene_cost_network.node[6].content_store 	decision_yes[6] 	72
scalar abilene_cost_network.node[6].content_store 	decision_no[6] 	51365
scalar abilene_cost_network.node[6].content_store 	decision_ratio[6] 	0.0013997705931528
scalar abilene_cost_network.node[6].content_store 	correction_factor[6] 	0.0027225701061802
scalar abilene_cost_network.node[6].content_store 	xi[6] 	1
scalar abilene_cost_network.node[7].core_layer 	interests[7] 	124790
scalar abilene_cost_network.node[7].core_layer 	data[7] 	106026
scalar abilene_cost_network.node[7].content_store 	p_hit[7] 	0.14977161631541
scalar abilene_cost_network.node[7].content_store 	hits[7] 	18690
scalar abilene_cost_network.node[7].content_store 	misses[7] 	106100
scalar abilene_cost_network.node[7].content_store 	decision_yes[7] 	205
scalar abilene_cost_network.node[7].content_store 	decision_no[7] 	105821
scalar abilene_cost_network.node[7].content_store 	decision_ratio[7] 	0.0019334880123743
scalar abilene_cost_network.node[7].content_store 	correction_factor[7] 	0.0027225701061802
scalar abilene_cost_network.node[7].content_store 	xi[7] 	1
scalar abilene_cost_network.node[8].core_layer 	interests[8] 	84014
scalar abilene_cost_network.node[8].core_layer 	data[8] 	55398
scalar abilene_cost_network.node[8].content_store 	p_hit[8] 	0.34060989835027
scalar abilene_cost_network.node[8].content_store 	hits[8] 	28616
scalar abilene_cost_network.node[8].content_store 	misses[8] 	55398
scalar abilene_cost_network.node[8].content_store 	decision_yes[8] 	57
scalar abilene_cost_network.node[8].content_store 	decision_no[8] 	55341
scalar abilene_cost_network.node[8].content_store 	decision_ratio[8] 	0.0010289180114806
scalar abilene_cost_network.node[8].content_store 	correction_factor[8] 	0.0027225701061802
scalar abilene_cost_network.node[8].content_store 	xi[8] 	1
scalar abilene_cost_network.node[9].core_layer 	interests[9] 	195672
scalar abilene_cost_network.node[9].core_layer 	data[9] 	170079
scalar abilene_cost_network.node[9].content_store 	p_hit[9] 	0.12445316652357
scalar abilene_cost_network.node[9].content_store 	hits[9] 	24352
scalar abilene_cost_network.node[9].content_store 	misses[9] 	171320
scalar abilene_cost_network.node[9].content_store 	decision_yes[9] 	712
scalar abilene_cost_network.node[9].content_store 	decision_no[9] 	169367
scalar abilene_cost_network.node[9].content_store 	decision_ratio[9] 	0.0041862899005756
scalar abilene_cost_network.node[9].content_store 	correction_factor[9] 	0.0027225701061802
scalar abilene_cost_network.node[9].content_store 	xi[9] 	1
scalar abilene_cost_network.node[10].core_layer 	interests[10] 	261499
scalar abilene_cost_network.node[10].core_layer 	data[10] 	254817
scalar abilene_cost_network.node[10].content_store 	p_hit[10] 	0.02555267897774
scalar abilene_cost_network.node[10].content_store 	hits[10] 	6682
scalar abilene_cost_network.node[10].content_store 	misses[10] 	254817
scalar abilene_cost_network.node[10].content_store 	decision_yes[10] 	595
scalar abilene_cost_network.node[10].content_store 	decision_no[10] 	254222
scalar abilene_cost_network.node[10].content_store 	decision_ratio[10] 	0.0023350090457073
scalar abilene_cost_network.node[10].content_store 	correction_factor[10] 	0.0027225701061802
scalar abilene_cost_network.node[10].content_store 	xi[10] 	1
scalar abilene_cost_network.node[11].core_layer 	interests[11] 	205652
scalar abilene_cost_network.node[11].core_layer 	repo_load[11] 	205652
scalar abilene_cost_network.node[11].core_layer 	data[11] 	0
scalar abilene_cost_network.node[11].content_store 	p_hit[11] 	0
scalar abilene_cost_network.node[11].content_store 	hits[11] 	0
scalar abilene_cost_network.node[11].content_store 	misses[11] 	205652
scalar abilene_cost_network.node[11].content_store 	decision_yes[11] 	0
scalar abilene_cost_network.node[11].content_store 	decision_no[11] 	205652
scalar abilene_cost_network.node[11].content_store 	decision_ratio[11] 	0
scalar abilene_cost_network.node[12].core_layer 	interests[12] 	76647
scalar abilene_cost_network.node[12].core_layer 	repo_load[12] 	76647
scalar abilene_cost_network.node[12].core_layer 	data[12] 	0
scalar abilene_cost_network.node[12].content_store 	p_hit[12] 	0
scalar abilene_cost_network.node[12].content_store 	hits[12] 	0
scalar abilene_cost_network.node[12].content_store 	misses[12] 	76647
scalar abilene_cost_network.node[12].content_store 	decision_yes[12] 	0
scalar abilene_cost_network.node[12].content_store 	decision_no[12] 	76647
scalar abilene_cost_network.node[12].content_store 	decision_ratio[12] 	0
scalar abilene_cost_network.node[13].core_layer 	interests[13] 	69657
scalar abilene_cost_network.node[13].core_layer 	repo_load[13] 	69657
scalar abilene_cost_network.node[13].core_layer 	data[13] 	0
scalar abilene_cost_network.node[13].content_store 	p_hit[13] 	0
scalar abilene_cost_network.node[13].content_store 	hits[13] 	0
scalar abilene_cost_network.node[13].content_store 	misses[13] 	69657
scalar abilene_cost_network.node[13].content_store 	decision_yes[13] 	0
scalar abilene_cost_network.node[13].content_store 	decision_no[13] 	69657
scalar abilene_cost_network.node[13].content_store 	decision_ratio[13] 	0
scalar abilene_cost_network.client[0] 	hdistance[0] 	3.1727648671731
scalar abilene_cost_network.client[0] 	downloads[0] 	177976
scalar abilene_cost_network.client[0] 	avg_time[0] 	0.013497672043
scalar abilene_cost_network.client[0] 	interests_sent[0] 	180064
scalar abilene_cost_network.client[5] 	hdistance[5] 	5.0092614268993
scalar abilene_cost_network.client[5] 	downloads[5] 	175135
scalar abilene_cost_network.client[5] 	avg_time[5] 	0.020674623281
scalar abilene_cost_network.client[5] 	interests_sent[5] 	179751
scalar abilene_cost_network.client[9] 	hdistance[9] 	2.8488164071044
scalar abilene_cost_network.client[9] 	downloads[9] 	178313
scalar abilene_cost_network.client[9] 	avg_time[9] 	0.011334454255
scalar abilene_cost_network.client[9] 	interests_sent[9] 	179554
