version 2
run General-35-20140626-18:01:42-10912
attr D costprobprodcorr0.01
attr F nrr
attr R lru
attr a 1
attr configname General
attr csize 1e3
attr ctlg 1e5
attr datetime 20140626-18:01:42
attr experiment General
attr inifile omnetpp.ini
attr iterationvars "$net=abilene_cost, $rep=5, $priceratiovalue=10, $weights=0.333_0.333_0.334, $lambda=100, $a=1, $ctlg=1e5, $F=nrr, $ttl=1000, $D=costprobprodcorr0.01, $xi=1, $R=lru, $csize=1e3, $pricebits=0, $mytime=1800"
attr iterationvars2 "$net=abilene_cost, $rep=5, $priceratiovalue=10, $weights=0.333_0.333_0.334, $lambda=100, $a=1, $ctlg=1e5, $F=nrr, $ttl=1000, $D=costprobprodcorr0.01, $xi=1, $R=lru, $csize=1e3, $pricebits=0, $mytime=1800, $repetition=0"
attr lambda 100
attr measurement "$net=abilene_cost, $rep=5, $priceratiovalue=10, $weights=0.333_0.333_0.334, $lambda=100, $a=1, $ctlg=1e5, $F=nrr, $ttl=1000, $D=costprobprodcorr0.01, $xi=1, $R=lru, $csize=1e3, $pricebits=0, $mytime=1800"
attr mytime 1800
attr net abilene_cost
attr network "networks.${net=geant_cost, abilene_cost}_network"
attr pricebits 0
attr priceratiovalue 10
attr processid 10912
attr rep 5
attr repetition 0
attr replication #0
attr resultdir results
attr runnumber 35
attr seedset 5
attr ttl 1000
attr weights 0.333_0.333_0.334
attr xi 1

scalar . 	a 	1
scalar . 	csize 	1e3
scalar . 	ctlg 	1e5
scalar . 	lambda 	100
scalar . 	mytime 	1800
scalar . 	pricebits 	0
scalar . 	priceratiovalue 	10
scalar . 	rep 	5
scalar . 	ttl 	1000
scalar . 	xi 	1
scalar abilene_cost_network.content_distribution 	repo-0 	11
scalar abilene_cost_network.content_distribution 	repo-1 	12
scalar abilene_cost_network.content_distribution 	repo-2 	13
scalar abilene_cost_network.content_distribution 	client-0 	5
scalar abilene_cost_network.content_distribution 	client-1 	0
scalar abilene_cost_network.content_distribution 	client-2 	9
scalar abilene_cost_network.content_distribution 	repo-0_card 	33102
scalar abilene_cost_network.content_distribution 	repo-1_card 	33495
scalar abilene_cost_network.content_distribution 	repo-2_card 	33403
scalar abilene_cost_network.statistics 	repo_popularity[0] 	0.44346789261525
scalar abilene_cost_network.statistics 	repo_popularity[1] 	0.29134602320581
scalar abilene_cost_network.statistics 	repo_popularity[2] 	0.26518608417894
scalar abilene_cost_network.statistics 	stabilization_time 	2288.9
scalar abilene_cost_network.node[1].face$o[4].channel 	price[1] 	0
scalar abilene_cost_network.node[1].face$o[4].channel 	represented_price[1] 	0
scalar abilene_cost_network.node[7].face$o[4].channel 	price[7] 	0
scalar abilene_cost_network.node[7].face$o[4].channel 	represented_price[7] 	0
scalar abilene_cost_network.node[10].face$o[4].channel 	price[10] 	0
scalar abilene_cost_network.node[10].face$o[4].channel 	represented_price[10] 	0
scalar abilene_cost_network.node[11].face$o[1].channel 	price[11] 	0
scalar abilene_cost_network.node[11].face$o[1].channel 	represented_price[11] 	0
scalar abilene_cost_network.node[12].face$o[1].channel 	price[12] 	1
scalar abilene_cost_network.node[12].face$o[1].channel 	represented_price[12] 	1
scalar abilene_cost_network.node[13].face$o[1].channel 	price[13] 	10
scalar abilene_cost_network.node[13].face$o[1].channel 	represented_price[13] 	10
scalar abilene_cost_network.statistics 	p_hit 	0.069970986814184
scalar abilene_cost_network.statistics 	interests 	156185.14285714
scalar abilene_cost_network.statistics 	data 	117545.28571429
scalar abilene_cost_network.statistics 	hdistance 	3.8068151768567
scalar abilene_cost_network.statistics 	avg_time 	0.015170643522
scalar abilene_cost_network.statistics 	downloads 	533232
scalar abilene_cost_network.statistics 	total_cost 	782258
scalar abilene_cost_network.statistics 	total_replicas 	100000
scalar abilene_cost_network.statistics 	inner_hit 	0.28695389624029
scalar abilene_cost_network.statistics 	interests_sent 	540964
scalar abilene_cost_network.node[0].core_layer 	interests[0] 	188326
scalar abilene_cost_network.node[0].core_layer 	data[0] 	173454
scalar abilene_cost_network.node[0].core_layer 	repo_int[0] 	380219
scalar abilene_cost_network.node[0].content_store 	p_hit[0] 	0.069193844716077
scalar abilene_cost_network.node[0].content_store 	hits[0] 	13031
scalar abilene_cost_network.node[0].content_store 	misses[0] 	175295
scalar abilene_cost_network.node[0].content_store 	decision_yes[0] 	733
scalar abilene_cost_network.node[0].content_store 	decision_no[0] 	172721
scalar abilene_cost_network.node[0].content_store 	decision_ratio[0] 	0.0042259042743321
scalar abilene_cost_network.node[0].content_store 	correction_factor[0] 	0.0027225701061802
scalar abilene_cost_network.node[0].content_store 	xi[0] 	1
scalar abilene_cost_network.node[1].core_layer 	interests[1] 	230441
scalar abilene_cost_network.node[1].core_layer 	data[1] 	204479
scalar abilene_cost_network.node[1].content_store 	p_hit[1] 	0.112662243264
scalar abilene_cost_network.node[1].content_store 	hits[1] 	25962
scalar abilene_cost_network.node[1].content_store 	misses[1] 	204479
scalar abilene_cost_network.node[1].content_store 	decision_yes[1] 	1953
scalar abilene_cost_network.node[1].content_store 	decision_no[1] 	202526
scalar abilene_cost_network.node[1].content_store 	decision_ratio[1] 	0.0095511030472567
scalar abilene_cost_network.node[1].content_store 	correction_factor[1] 	0.0027225701061802
scalar abilene_cost_network.node[1].content_store 	xi[1] 	1
scalar abilene_cost_network.node[2].core_layer 	interests[2] 	176238
scalar abilene_cost_network.node[2].core_layer 	data[2] 	166942
scalar abilene_cost_network.node[2].content_store 	p_hit[2] 	0.052690112234592
scalar abilene_cost_network.node[2].content_store 	hits[2] 	9286
scalar abilene_cost_network.node[2].content_store 	misses[2] 	166952
scalar abilene_cost_network.node[2].content_store 	decision_yes[2] 	706
scalar abilene_cost_network.node[2].content_store 	decision_no[2] 	166236
scalar abilene_cost_network.node[2].content_store 	decision_ratio[2] 	0.0042290136694181
scalar abilene_cost_network.node[2].content_store 	correction_factor[2] 	0.0027225701061802
scalar abilene_cost_network.node[2].content_store 	xi[2] 	1
scalar abilene_cost_network.node[3].core_layer 	interests[3] 	172753
scalar abilene_cost_network.node[3].core_layer 	data[3] 	158871
scalar abilene_cost_network.node[3].content_store 	p_hit[3] 	0.080363293256846
scalar abilene_cost_network.node[3].content_store 	hits[3] 	13883
scalar abilene_cost_network.node[3].content_store 	misses[3] 	158870
scalar abilene_cost_network.node[3].content_store 	decision_yes[3] 	754
scalar abilene_cost_network.node[3].content_store 	decision_no[3] 	158117
scalar abilene_cost_network.node[3].content_store 	decision_ratio[3] 	0.0047459888840632
scalar abilene_cost_network.node[3].content_store 	correction_factor[3] 	0.0027225701061802
scalar abilene_cost_network.node[3].content_store 	xi[3] 	1
scalar abilene_cost_network.node[4].core_layer 	interests[4] 	133040
scalar abilene_cost_network.node[4].core_layer 	data[4] 	129232
scalar abilene_cost_network.node[4].content_store 	p_hit[4] 	0.028638003607937
scalar abilene_cost_network.node[4].content_store 	hits[4] 	3810
scalar abilene_cost_network.node[4].content_store 	misses[4] 	129230
scalar abilene_cost_network.node[4].content_store 	decision_yes[4] 	599
scalar abilene_cost_network.node[4].content_store 	decision_no[4] 	128633
scalar abilene_cost_network.node[4].content_store 	decision_ratio[4] 	0.0046350749040485
scalar abilene_cost_network.node[4].content_store 	correction_factor[4] 	0.0027225701061802
scalar abilene_cost_network.node[4].content_store 	xi[4] 	1
scalar abilene_cost_network.node[5].core_layer 	interests[5] 	199025
scalar abilene_cost_network.node[5].core_layer 	data[5] 	163102
scalar abilene_cost_network.node[5].content_store 	p_hit[5] 	0.1571058912197
scalar abilene_cost_network.node[5].content_store 	hits[5] 	31268
scalar abilene_cost_network.node[5].content_store 	misses[5] 	167757
scalar abilene_cost_network.node[5].content_store 	decision_yes[5] 	735
scalar abilene_cost_network.node[5].content_store 	decision_no[5] 	162367
scalar abilene_cost_network.node[5].content_store 	decision_ratio[5] 	0.0045063825091047
scalar abilene_cost_network.node[5].content_store 	correction_factor[5] 	0.0027225701061802
scalar abilene_cost_network.node[5].content_store 	xi[5] 	1
scalar abilene_cost_network.node[6].core_layer 	interests[6] 	54512
scalar abilene_cost_network.node[6].core_layer 	data[6] 	46925
scalar abilene_cost_network.node[6].content_store 	p_hit[6] 	0.13918036395656
scalar abilene_cost_network.node[6].content_store 	hits[6] 	7587
scalar abilene_cost_network.node[6].content_store 	misses[6] 	46925
scalar abilene_cost_network.node[6].content_store 	decision_yes[6] 	74
scalar abilene_cost_network.node[6].content_store 	decision_no[6] 	46851
scalar abilene_cost_network.node[6].content_store 	decision_ratio[6] 	0.0015769845498135
scalar abilene_cost_network.node[6].content_store 	correction_factor[6] 	0.0027225701061802
scalar abilene_cost_network.node[6].content_store 	xi[6] 	1
scalar abilene_cost_network.node[7].core_layer 	interests[7] 	113273
scalar abilene_cost_network.node[7].core_layer 	data[7] 	97293
scalar abilene_cost_network.node[7].content_store 	p_hit[7] 	0.14105744528705
scalar abilene_cost_network.node[7].content_store 	hits[7] 	15978
scalar abilene_cost_network.node[7].content_store 	misses[7] 	97295
scalar abilene_cost_network.node[7].content_store 	decision_yes[7] 	207
scalar abilene_cost_network.node[7].content_store 	decision_no[7] 	97086
scalar abilene_cost_network.node[7].content_store 	decision_ratio[7] 	0.0021275939687336
scalar abilene_cost_network.node[7].content_store 	correction_factor[7] 	0.0027225701061802
scalar abilene_cost_network.node[7].content_store 	xi[7] 	1
scalar abilene_cost_network.node[8].core_layer 	interests[8] 	61328
scalar abilene_cost_network.node[8].core_layer 	data[8] 	55941
scalar abilene_cost_network.node[8].content_store 	p_hit[8] 	0.08783915992695
scalar abilene_cost_network.node[8].content_store 	hits[8] 	5387
scalar abilene_cost_network.node[8].content_store 	misses[8] 	55941
scalar abilene_cost_network.node[8].content_store 	decision_yes[8] 	64
scalar abilene_cost_network.node[8].content_store 	decision_no[8] 	55877
scalar abilene_cost_network.node[8].content_store 	decision_ratio[8] 	0.0011440624944138
scalar abilene_cost_network.node[8].content_store 	correction_factor[8] 	0.0027225701061802
scalar abilene_cost_network.node[8].content_store 	xi[8] 	1
scalar abilene_cost_network.node[9].core_layer 	interests[9] 	189816
scalar abilene_cost_network.node[9].core_layer 	data[9] 	173790
scalar abilene_cost_network.node[9].content_store 	p_hit[9] 	0.077917562270831
scalar abilene_cost_network.node[9].content_store 	hits[9] 	14790
scalar abilene_cost_network.node[9].content_store 	misses[9] 	175026
scalar abilene_cost_network.node[9].content_store 	decision_yes[9] 	703
scalar abilene_cost_network.node[9].content_store 	decision_no[9] 	173087
scalar abilene_cost_network.node[9].content_store 	decision_ratio[9] 	0.0040451119166811
scalar abilene_cost_network.node[9].content_store 	correction_factor[9] 	0.0027225701061802
scalar abilene_cost_network.node[9].content_store 	xi[9] 	1
scalar abilene_cost_network.node[10].core_layer 	interests[10] 	287621
scalar abilene_cost_network.node[10].core_layer 	data[10] 	275605
scalar abilene_cost_network.node[10].content_store 	p_hit[10] 	0.041777199856756
scalar abilene_cost_network.node[10].content_store 	hits[10] 	12016
scalar abilene_cost_network.node[10].content_store 	misses[10] 	275605
scalar abilene_cost_network.node[10].content_store 	decision_yes[10] 	656
scalar abilene_cost_network.node[10].content_store 	decision_no[10] 	274949
scalar abilene_cost_network.node[10].content_store 	decision_ratio[10] 	0.00238021806571
scalar abilene_cost_network.node[10].content_store 	correction_factor[10] 	0.0027225701061802
scalar abilene_cost_network.node[10].content_store 	xi[10] 	1
scalar abilene_cost_network.node[11].core_layer 	interests[11] 	233469
scalar abilene_cost_network.node[11].core_layer 	repo_load[11] 	233469
scalar abilene_cost_network.node[11].core_layer 	data[11] 	0
scalar abilene_cost_network.node[11].content_store 	p_hit[11] 	0
scalar abilene_cost_network.node[11].content_store 	hits[11] 	0
scalar abilene_cost_network.node[11].content_store 	misses[11] 	233469
scalar abilene_cost_network.node[11].content_store 	decision_yes[11] 	0
scalar abilene_cost_network.node[11].content_store 	decision_no[11] 	233469
scalar abilene_cost_network.node[11].content_store 	decision_ratio[11] 	0
scalar abilene_cost_network.node[12].core_layer 	interests[12] 	76138
scalar abilene_cost_network.node[12].core_layer 	repo_load[12] 	76138
scalar abilene_cost_network.node[12].core_layer 	data[12] 	0
scalar abilene_cost_network.node[12].content_store 	p_hit[12] 	0
scalar abilene_cost_network.node[12].content_store 	hits[12] 	0
scalar abilene_cost_network.node[12].content_store 	misses[12] 	76138
scalar abilene_cost_network.node[12].content_store 	decision_yes[12] 	0
scalar abilene_cost_network.node[12].content_store 	decision_no[12] 	76138
scalar abilene_cost_network.node[12].content_store 	decision_ratio[12] 	0
scalar abilene_cost_network.node[13].core_layer 	interests[13] 	70612
scalar abilene_cost_network.node[13].core_layer 	repo_load[13] 	70612
scalar abilene_cost_network.node[13].core_layer 	data[13] 	0
scalar abilene_cost_network.node[13].content_store 	p_hit[13] 	0
scalar abilene_cost_network.node[13].content_store 	hits[13] 	0
scalar abilene_cost_network.node[13].content_store 	misses[13] 	70612
scalar abilene_cost_network.node[13].content_store 	decision_yes[13] 	0
scalar abilene_cost_network.node[13].content_store 	decision_no[13] 	70612
scalar abilene_cost_network.node[13].content_store 	decision_ratio[13] 	0
scalar abilene_cost_network.client[0] 	hdistance[0] 	3.3056174117384
scalar abilene_cost_network.client[0] 	downloads[0] 	178730
scalar abilene_cost_network.client[0] 	avg_time[0] 	0.013540472374
scalar abilene_cost_network.client[0] 	interests_sent[0] 	180571
scalar abilene_cost_network.client[5] 	hdistance[5] 	5.0660881250925
scalar abilene_cost_network.client[5] 	downloads[5] 	175614
scalar abilene_cost_network.client[5] 	avg_time[5] 	0.020554718393
scalar abilene_cost_network.client[5] 	interests_sent[5] 	180269
scalar abilene_cost_network.client[9] 	hdistance[9] 	3.0487399937391
scalar abilene_cost_network.client[9] 	downloads[9] 	178888
scalar abilene_cost_network.client[9] 	avg_time[9] 	0.011416739801
scalar abilene_cost_network.client[9] 	interests_sent[9] 	180124
