version 2
run General-43-20140627-19:47:41-15446
attr D costprobprodcorr0.01
attr F nrr
attr R lru
attr a 1
attr configname General
attr csize 1e3
attr ctlg 1e5
attr datetime 20140627-19:47:41
attr experiment General
attr inifile omnetpp.ini
attr iterationvars "$net=abilene_cost, $rep=20, $priceratiovalue=10, $weights=0.333_0.333_0.334, $lambda=100, $a=1, $ctlg=1e5, $F=nrr, $ttl=1000, $D=costprobprodcorr0.01, $xi=1, $R=lru, $csize=1e3, $pricebits=0, $window=60, $variance=0.05, $mytime=1800"
attr iterationvars2 "$net=abilene_cost, $rep=20, $priceratiovalue=10, $weights=0.333_0.333_0.334, $lambda=100, $a=1, $ctlg=1e5, $F=nrr, $ttl=1000, $D=costprobprodcorr0.01, $xi=1, $R=lru, $csize=1e3, $pricebits=0, $window=60, $variance=0.05, $mytime=1800, $repetition=0"
attr lambda 100
attr measurement "$net=abilene_cost, $rep=20, $priceratiovalue=10, $weights=0.333_0.333_0.334, $lambda=100, $a=1, $ctlg=1e5, $F=nrr, $ttl=1000, $D=costprobprodcorr0.01, $xi=1, $R=lru, $csize=1e3, $pricebits=0, $window=60, $variance=0.05, $mytime=1800"
attr mytime 1800
attr net abilene_cost
attr network "networks.${net=geant_cost, abilene_cost}_network"
attr pricebits 0
attr priceratiovalue 10
attr processid 15446
attr rep 20
attr repetition 0
attr replication #0
attr resultdir results
attr runnumber 43
attr seedset 20
attr ttl 1000
attr variance 0.05
attr weights 0.333_0.333_0.334
attr window 60
attr xi 1

scalar . 	a 	1
scalar . 	csize 	1e3
scalar . 	ctlg 	1e5
scalar . 	lambda 	100
scalar . 	mytime 	1800
scalar . 	pricebits 	0
scalar . 	priceratiovalue 	10
scalar . 	rep 	20
scalar . 	ttl 	1000
scalar . 	variance 	0.05
scalar . 	window 	60
scalar . 	xi 	1
scalar abilene_cost_network.content_distribution 	repo-0 	11
scalar abilene_cost_network.content_distribution 	repo-1 	12
scalar abilene_cost_network.content_distribution 	repo-2 	13
scalar abilene_cost_network.content_distribution 	client-0 	5
scalar abilene_cost_network.content_distribution 	client-1 	0
scalar abilene_cost_network.content_distribution 	client-2 	9
scalar abilene_cost_network.content_distribution 	repo-0_card 	33321
scalar abilene_cost_network.content_distribution 	repo-1_card 	33296
scalar abilene_cost_network.content_distribution 	repo-2_card 	33383
scalar abilene_cost_network.statistics 	repo_popularity[0] 	0.30078651597297
scalar abilene_cost_network.statistics 	repo_popularity[1] 	0.29276091736323
scalar abilene_cost_network.statistics 	repo_popularity[2] 	0.4064525666638
scalar abilene_cost_network.statistics 	stabilization_time 	2153.7
scalar abilene_cost_network.node[1].face$o[4].channel 	price[1] 	0
scalar abilene_cost_network.node[1].face$o[4].channel 	represented_price[1] 	0
scalar abilene_cost_network.node[7].face$o[4].channel 	price[7] 	0
scalar abilene_cost_network.node[7].face$o[4].channel 	represented_price[7] 	0
scalar abilene_cost_network.node[10].face$o[4].channel 	price[10] 	0
scalar abilene_cost_network.node[10].face$o[4].channel 	represented_price[10] 	0
scalar abilene_cost_network.node[11].face$o[1].channel 	price[11] 	0
scalar abilene_cost_network.node[11].face$o[1].channel 	represented_price[11] 	0
scalar abilene_cost_network.node[12].face$o[1].channel 	price[12] 	1
scalar abilene_cost_network.node[12].face$o[1].channel 	represented_price[12] 	1
scalar abilene_cost_network.node[13].face$o[1].channel 	price[13] 	10
scalar abilene_cost_network.node[13].face$o[1].channel 	represented_price[13] 	10
scalar abilene_cost_network.statistics 	p_hit 	0.1111223788548
scalar abilene_cost_network.statistics 	interests 	145097.42857143
scalar abilene_cost_network.statistics 	data 	106561
scalar abilene_cost_network.statistics 	hdistance 	3.3728249464547
scalar abilene_cost_network.statistics 	avg_time 	0.01444818832
scalar abilene_cost_network.statistics 	downloads 	533773
scalar abilene_cost_network.statistics 	total_cost 	772243
scalar abilene_cost_network.statistics 	total_replicas 	100000
scalar abilene_cost_network.statistics 	inner_hit 	0.42302064735384
scalar abilene_cost_network.statistics 	interests_sent 	539517
scalar abilene_cost_network.node[0].core_layer 	interests[0] 	203595
scalar abilene_cost_network.node[0].core_layer 	data[0] 	161475
scalar abilene_cost_network.node[0].core_layer 	repo_int[0] 	307976
scalar abilene_cost_network.node[0].content_store 	p_hit[0] 	0.19845772243916
scalar abilene_cost_network.node[0].content_store 	hits[0] 	40405
scalar abilene_cost_network.node[0].content_store 	misses[0] 	163190
scalar abilene_cost_network.node[0].content_store 	decision_yes[0] 	639
scalar abilene_cost_network.node[0].content_store 	decision_no[0] 	160836
scalar abilene_cost_network.node[0].content_store 	decision_ratio[0] 	0.0039572689270785
scalar abilene_cost_network.node[0].content_store 	correction_factor[0] 	0.0027225701061802
scalar abilene_cost_network.node[0].content_store 	xi[0] 	1
scalar abilene_cost_network.node[1].core_layer 	interests[1] 	238951
scalar abilene_cost_network.node[1].core_layer 	data[1] 	186675
scalar abilene_cost_network.node[1].content_store 	p_hit[1] 	0.21877288649137
scalar abilene_cost_network.node[1].content_store 	hits[1] 	52276
scalar abilene_cost_network.node[1].content_store 	misses[1] 	186675
scalar abilene_cost_network.node[1].content_store 	decision_yes[1] 	1987
scalar abilene_cost_network.node[1].content_store 	decision_no[1] 	184687
scalar abilene_cost_network.node[1].content_store 	decision_ratio[1] 	0.010644224691173
scalar abilene_cost_network.node[1].content_store 	correction_factor[1] 	0.0027225701061802
scalar abilene_cost_network.node[1].content_store 	xi[1] 	1
scalar abilene_cost_network.node[2].core_layer 	interests[2] 	164506
scalar abilene_cost_network.node[2].core_layer 	data[2] 	150763
scalar abilene_cost_network.node[2].content_store 	p_hit[2] 	0.083176297521063
scalar abilene_cost_network.node[2].content_store 	hits[2] 	13683
scalar abilene_cost_network.node[2].content_store 	misses[2] 	150823
scalar abilene_cost_network.node[2].content_store 	decision_yes[2] 	715
scalar abilene_cost_network.node[2].content_store 	decision_no[2] 	150048
scalar abilene_cost_network.node[2].content_store 	decision_ratio[2] 	0.0047425429316212
scalar abilene_cost_network.node[2].content_store 	correction_factor[2] 	0.0027225701061802
scalar abilene_cost_network.node[2].content_store 	xi[2] 	1
scalar abilene_cost_network.node[3].core_layer 	interests[3] 	159753
scalar abilene_cost_network.node[3].core_layer 	data[3] 	137940
scalar abilene_cost_network.node[3].content_store 	p_hit[3] 	0.13655455609597
scalar abilene_cost_network.node[3].content_store 	hits[3] 	21815
scalar abilene_cost_network.node[3].content_store 	misses[3] 	137938
scalar abilene_cost_network.node[3].content_store 	decision_yes[3] 	728
scalar abilene_cost_network.node[3].content_store 	decision_no[3] 	137212
scalar abilene_cost_network.node[3].content_store 	decision_ratio[3] 	0.0052776569522981
scalar abilene_cost_network.node[3].content_store 	correction_factor[3] 	0.0027225701061802
scalar abilene_cost_network.node[3].content_store 	xi[3] 	1
scalar abilene_cost_network.node[4].core_layer 	interests[4] 	113224
scalar abilene_cost_network.node[4].core_layer 	data[4] 	109430
scalar abilene_cost_network.node[4].content_store 	p_hit[4] 	0.033526460821027
scalar abilene_cost_network.node[4].content_store 	hits[4] 	3796
scalar abilene_cost_network.node[4].content_store 	misses[4] 	109428
scalar abilene_cost_network.node[4].content_store 	decision_yes[4] 	606
scalar abilene_cost_network.node[4].content_store 	decision_no[4] 	108824
scalar abilene_cost_network.node[4].content_store 	decision_ratio[4] 	0.0055377867129672
scalar abilene_cost_network.node[4].content_store 	correction_factor[4] 	0.0027225701061802
scalar abilene_cost_network.node[4].content_store 	xi[4] 	1
scalar abilene_cost_network.node[5].core_layer 	interests[5] 	182711
scalar abilene_cost_network.node[5].core_layer 	data[5] 	154663
scalar abilene_cost_network.node[5].content_store 	p_hit[5] 	0.14357099463087
scalar abilene_cost_network.node[5].content_store 	hits[5] 	26232
scalar abilene_cost_network.node[5].content_store 	misses[5] 	156479
scalar abilene_cost_network.node[5].content_store 	decision_yes[5] 	688
scalar abilene_cost_network.node[5].content_store 	decision_no[5] 	153975
scalar abilene_cost_network.node[5].content_store 	decision_ratio[5] 	0.0044483813193847
scalar abilene_cost_network.node[5].content_store 	correction_factor[5] 	0.0027225701061802
scalar abilene_cost_network.node[5].content_store 	xi[5] 	1
scalar abilene_cost_network.node[6].core_layer 	interests[6] 	49770
scalar abilene_cost_network.node[6].core_layer 	data[6] 	43089
scalar abilene_cost_network.node[6].content_store 	p_hit[6] 	0.13421740004018
scalar abilene_cost_network.node[6].content_store 	hits[6] 	6680
scalar abilene_cost_network.node[6].content_store 	misses[6] 	43090
scalar abilene_cost_network.node[6].content_store 	decision_yes[6] 	73
scalar abilene_cost_network.node[6].content_store 	decision_no[6] 	43015
scalar abilene_cost_network.node[6].content_store 	decision_ratio[6] 	0.0016942072038619
scalar abilene_cost_network.node[6].content_store 	correction_factor[6] 	0.0027225701061802
scalar abilene_cost_network.node[6].content_store 	xi[6] 	1
scalar abilene_cost_network.node[7].core_layer 	interests[7] 	113012
scalar abilene_cost_network.node[7].core_layer 	data[7] 	91777
scalar abilene_cost_network.node[7].content_store 	p_hit[7] 	0.18787385410399
scalar abilene_cost_network.node[7].content_store 	hits[7] 	21232
scalar abilene_cost_network.node[7].content_store 	misses[7] 	91780
scalar abilene_cost_network.node[7].content_store 	decision_yes[7] 	235
scalar abilene_cost_network.node[7].content_store 	decision_no[7] 	91541
scalar abilene_cost_network.node[7].content_store 	decision_ratio[7] 	0.0025605822873082
scalar abilene_cost_network.node[7].content_store 	correction_factor[7] 	0.0027225701061802
scalar abilene_cost_network.node[7].content_store 	xi[7] 	1
scalar abilene_cost_network.node[8].core_layer 	interests[8] 	63481
scalar abilene_cost_network.node[8].core_layer 	data[8] 	55051
scalar abilene_cost_network.node[8].content_store 	p_hit[8] 	0.13279563964021
scalar abilene_cost_network.node[8].content_store 	hits[8] 	8430
scalar abilene_cost_network.node[8].content_store 	misses[8] 	55051
scalar abilene_cost_network.node[8].content_store 	decision_yes[8] 	94
scalar abilene_cost_network.node[8].content_store 	decision_no[8] 	54957
scalar abilene_cost_network.node[8].content_store 	decision_ratio[8] 	0.0017075075838768
scalar abilene_cost_network.node[8].content_store 	correction_factor[8] 	0.0027225701061802
scalar abilene_cost_network.node[8].content_store 	xi[8] 	1
scalar abilene_cost_network.node[9].core_layer 	interests[9] 	191997
scalar abilene_cost_network.node[9].core_layer 	data[9] 	172562
scalar abilene_cost_network.node[9].content_store 	p_hit[9] 	0.089699318218514
scalar abilene_cost_network.node[9].content_store 	hits[9] 	17222
scalar abilene_cost_network.node[9].content_store 	misses[9] 	174775
scalar abilene_cost_network.node[9].content_store 	decision_yes[9] 	690
scalar abilene_cost_network.node[9].content_store 	decision_no[9] 	171872
scalar abilene_cost_network.node[9].content_store 	decision_ratio[9] 	0.0039985628353867
scalar abilene_cost_network.node[9].content_store 	correction_factor[9] 	0.0027225701061802
scalar abilene_cost_network.node[9].content_store 	xi[9] 	1
scalar abilene_cost_network.node[10].core_layer 	interests[10] 	242388
scalar abilene_cost_network.node[10].core_layer 	data[10] 	228429
scalar abilene_cost_network.node[10].content_store 	p_hit[10] 	0.057589484627952
scalar abilene_cost_network.node[10].content_store 	hits[10] 	13959
scalar abilene_cost_network.node[10].content_store 	misses[10] 	228429
scalar abilene_cost_network.node[10].content_store 	decision_yes[10] 	600
scalar abilene_cost_network.node[10].content_store 	decision_no[10] 	227829
scalar abilene_cost_network.node[10].content_store 	decision_ratio[10] 	0.002626636723008
scalar abilene_cost_network.node[10].content_store 	correction_factor[10] 	0.0027225701061802
scalar abilene_cost_network.node[10].content_store 	xi[10] 	1
scalar abilene_cost_network.node[11].core_layer 	interests[11] 	161332
scalar abilene_cost_network.node[11].core_layer 	repo_load[11] 	161332
scalar abilene_cost_network.node[11].core_layer 	data[11] 	0
scalar abilene_cost_network.node[11].content_store 	p_hit[11] 	0
scalar abilene_cost_network.node[11].content_store 	hits[11] 	0
scalar abilene_cost_network.node[11].content_store 	misses[11] 	161332
scalar abilene_cost_network.node[11].content_store 	decision_yes[11] 	0
scalar abilene_cost_network.node[11].content_store 	decision_no[11] 	161332
scalar abilene_cost_network.node[11].content_store 	decision_ratio[11] 	0
scalar abilene_cost_network.node[12].core_layer 	interests[12] 	77133
scalar abilene_cost_network.node[12].core_layer 	repo_load[12] 	77133
scalar abilene_cost_network.node[12].core_layer 	data[12] 	0
scalar abilene_cost_network.node[12].content_store 	p_hit[12] 	0
scalar abilene_cost_network.node[12].content_store 	hits[12] 	0
scalar abilene_cost_network.node[12].content_store 	misses[12] 	77133
scalar abilene_cost_network.node[12].content_store 	decision_yes[12] 	0
scalar abilene_cost_network.node[12].content_store 	decision_no[12] 	77133
scalar abilene_cost_network.node[12].content_store 	decision_ratio[12] 	0
scalar abilene_cost_network.node[13].core_layer 	interests[13] 	69511
scalar abilene_cost_network.node[13].core_layer 	repo_load[13] 	69511
scalar abilene_cost_network.node[13].core_layer 	data[13] 	0
scalar abilene_cost_network.node[13].content_store 	p_hit[13] 	0
scalar abilene_cost_network.node[13].content_store 	hits[13] 	0
scalar abilene_cost_network.node[13].content_store 	misses[13] 	69511
scalar abilene_cost_network.node[13].content_store 	decision_yes[13] 	0
scalar abilene_cost_network.node[13].content_store 	decision_no[13] 	69511
scalar abilene_cost_network.node[13].content_store 	decision_ratio[13] 	0
scalar abilene_cost_network.client[0] 	hdistance[0] 	2.8771652480154
scalar abilene_cost_network.client[0] 	downloads[0] 	177751
scalar abilene_cost_network.client[0] 	avg_time[0] 	0.012859371664
scalar abilene_cost_network.client[0] 	interests_sent[0] 	179466
scalar abilene_cost_network.client[5] 	hdistance[5] 	4.4185822676514
scalar abilene_cost_network.client[5] 	downloads[5] 	177664
scalar abilene_cost_network.client[5] 	avg_time[5] 	0.018305235228
scalar abilene_cost_network.client[5] 	interests_sent[5] 	179480
scalar abilene_cost_network.client[9] 	hdistance[9] 	2.8227273236973
scalar abilene_cost_network.client[9] 	downloads[9] 	178358
scalar abilene_cost_network.client[9] 	avg_time[9] 	0.012179958068
scalar abilene_cost_network.client[9] 	interests_sent[9] 	180571
