version 2
run General-35-20140627-19:43:40-15431
attr D costprobprodcorr0.01
attr F nrr
attr R lru
attr a 1
attr configname General
attr csize 1e3
attr ctlg 1e5
attr datetime 20140627-19:43:40
attr experiment General
attr inifile omnetpp.ini
attr iterationvars "$net=abilene_cost, $rep=19, $priceratiovalue=10, $weights=0.333_0.333_0.334, $lambda=100, $a=1, $ctlg=1e5, $F=nrr, $ttl=1000, $D=costprobprodcorr0.01, $xi=1, $R=lru, $csize=1e3, $pricebits=0, $window=60, $variance=0.05, $mytime=1800"
attr iterationvars2 "$net=abilene_cost, $rep=19, $priceratiovalue=10, $weights=0.333_0.333_0.334, $lambda=100, $a=1, $ctlg=1e5, $F=nrr, $ttl=1000, $D=costprobprodcorr0.01, $xi=1, $R=lru, $csize=1e3, $pricebits=0, $window=60, $variance=0.05, $mytime=1800, $repetition=0"
attr lambda 100
attr measurement "$net=abilene_cost, $rep=19, $priceratiovalue=10, $weights=0.333_0.333_0.334, $lambda=100, $a=1, $ctlg=1e5, $F=nrr, $ttl=1000, $D=costprobprodcorr0.01, $xi=1, $R=lru, $csize=1e3, $pricebits=0, $window=60, $variance=0.05, $mytime=1800"
attr mytime 1800
attr net abilene_cost
attr network "networks.${net=geant_cost, abilene_cost}_network"
attr pricebits 0
attr priceratiovalue 10
attr processid 15431
attr rep 19
attr repetition 0
attr replication #0
attr resultdir results
attr runnumber 35
attr seedset 19
attr ttl 1000
attr variance 0.05
attr weights 0.333_0.333_0.334
attr window 60
attr xi 1

scalar . 	a 	1
scalar . 	csize 	1e3
scalar . 	ctlg 	1e5
scalar . 	lambda 	100
scalar . 	mytime 	1800
scalar . 	pricebits 	0
scalar . 	priceratiovalue 	10
scalar . 	rep 	19
scalar . 	ttl 	1000
scalar . 	variance 	0.05
scalar . 	window 	60
scalar . 	xi 	1
scalar abilene_cost_network.content_distribution 	repo-0 	11
scalar abilene_cost_network.content_distribution 	repo-1 	12
scalar abilene_cost_network.content_distribution 	repo-2 	13
scalar abilene_cost_network.content_distribution 	client-0 	5
scalar abilene_cost_network.content_distribution 	client-1 	0
scalar abilene_cost_network.content_distribution 	client-2 	9
scalar abilene_cost_network.content_distribution 	repo-0_card 	33368
scalar abilene_cost_network.content_distribution 	repo-1_card 	33389
scalar abilene_cost_network.content_distribution 	repo-2_card 	33243
scalar abilene_cost_network.statistics 	repo_popularity[0] 	0.2704974433948
scalar abilene_cost_network.statistics 	repo_popularity[1] 	0.39472808551936
scalar abilene_cost_network.statistics 	repo_popularity[2] 	0.33477447108584
scalar abilene_cost_network.statistics 	stabilization_time 	2172.9
scalar abilene_cost_network.node[1].face$o[4].channel 	price[1] 	0
scalar abilene_cost_network.node[1].face$o[4].channel 	represented_price[1] 	0
scalar abilene_cost_network.node[7].face$o[4].channel 	price[7] 	0
scalar abilene_cost_network.node[7].face$o[4].channel 	represented_price[7] 	0
scalar abilene_cost_network.node[10].face$o[4].channel 	price[10] 	0
scalar abilene_cost_network.node[10].face$o[4].channel 	represented_price[10] 	0
scalar abilene_cost_network.node[11].face$o[1].channel 	price[11] 	0
scalar abilene_cost_network.node[11].face$o[1].channel 	represented_price[11] 	0
scalar abilene_cost_network.node[12].face$o[1].channel 	price[12] 	1
scalar abilene_cost_network.node[12].face$o[1].channel 	represented_price[12] 	1
scalar abilene_cost_network.node[13].face$o[1].channel 	price[13] 	10
scalar abilene_cost_network.node[13].face$o[1].channel 	represented_price[13] 	10
scalar abilene_cost_network.statistics 	p_hit 	0.11282335941777
scalar abilene_cost_network.statistics 	interests 	149140.21428571
scalar abilene_cost_network.statistics 	data 	110640.42857143
scalar abilene_cost_network.statistics 	hdistance 	3.4796051952369
scalar abilene_cost_network.statistics 	avg_time 	0.015527883672
scalar abilene_cost_network.statistics 	downloads 	529422
scalar abilene_cost_network.statistics 	total_cost 	776025
scalar abilene_cost_network.statistics 	total_replicas 	100000
scalar abilene_cost_network.statistics 	inner_hit 	0.44686091624451
scalar abilene_cost_network.statistics 	interests_sent 	539003
scalar abilene_cost_network.node[0].core_layer 	interests[0] 	189339
scalar abilene_cost_network.node[0].core_layer 	data[0] 	165951
scalar abilene_cost_network.node[0].core_layer 	repo_int[0] 	292844
scalar abilene_cost_network.node[0].content_store 	p_hit[0] 	0.10211314097994
scalar abilene_cost_network.node[0].content_store 	hits[0] 	19334
scalar abilene_cost_network.node[0].content_store 	misses[0] 	170005
scalar abilene_cost_network.node[0].content_store 	decision_yes[0] 	688
scalar abilene_cost_network.node[0].content_store 	decision_no[0] 	165263
scalar abilene_cost_network.node[0].content_store 	decision_ratio[0] 	0.0041458020741062
scalar abilene_cost_network.node[0].content_store 	correction_factor[0] 	0.0027225701061802
scalar abilene_cost_network.node[0].content_store 	xi[0] 	1
scalar abilene_cost_network.node[1].core_layer 	interests[1] 	226199
scalar abilene_cost_network.node[1].core_layer 	data[1] 	197200
scalar abilene_cost_network.node[1].content_store 	p_hit[1] 	0.12820569498539
scalar abilene_cost_network.node[1].content_store 	hits[1] 	29000
scalar abilene_cost_network.node[1].content_store 	misses[1] 	197199
scalar abilene_cost_network.node[1].content_store 	decision_yes[1] 	1961
scalar abilene_cost_network.node[1].content_store 	decision_no[1] 	195239
scalar abilene_cost_network.node[1].content_store 	decision_ratio[1] 	0.0099442190669371
scalar abilene_cost_network.node[1].content_store 	correction_factor[1] 	0.0027225701061802
scalar abilene_cost_network.node[1].content_store 	xi[1] 	1
scalar abilene_cost_network.node[2].core_layer 	interests[2] 	174878
scalar abilene_cost_network.node[2].core_layer 	data[2] 	164161
scalar abilene_cost_network.node[2].content_store 	p_hit[2] 	0.060951063026796
scalar abilene_cost_network.node[2].content_store 	hits[2] 	10659
scalar abilene_cost_network.node[2].content_store 	misses[2] 	164219
scalar abilene_cost_network.node[2].content_store 	decision_yes[2] 	735
scalar abilene_cost_network.node[2].content_store 	decision_no[2] 	163426
scalar abilene_cost_network.node[2].content_store 	decision_ratio[2] 	0.004477311907213
scalar abilene_cost_network.node[2].content_store 	correction_factor[2] 	0.0027225701061802
scalar abilene_cost_network.node[2].content_store 	xi[2] 	1
scalar abilene_cost_network.node[3].core_layer 	interests[3] 	167383
scalar abilene_cost_network.node[3].core_layer 	data[3] 	142635
scalar abilene_cost_network.node[3].content_store 	p_hit[3] 	0.14785850414917
scalar abilene_cost_network.node[3].content_store 	hits[3] 	24749
scalar abilene_cost_network.node[3].content_store 	misses[3] 	142634
scalar abilene_cost_network.node[3].content_store 	decision_yes[3] 	692
scalar abilene_cost_network.node[3].content_store 	decision_no[3] 	141943
scalar abilene_cost_network.node[3].content_store 	decision_ratio[3] 	0.004851544151155
scalar abilene_cost_network.node[3].content_store 	correction_factor[3] 	0.0027225701061802
scalar abilene_cost_network.node[3].content_store 	xi[3] 	1
scalar abilene_cost_network.node[4].core_layer 	interests[4] 	108717
scalar abilene_cost_network.node[4].core_layer 	data[4] 	105937
scalar abilene_cost_network.node[4].content_store 	p_hit[4] 	0.025580176053423
scalar abilene_cost_network.node[4].content_store 	hits[4] 	2781
scalar abilene_cost_network.node[4].content_store 	misses[4] 	105936
scalar abilene_cost_network.node[4].content_store 	decision_yes[4] 	654
scalar abilene_cost_network.node[4].content_store 	decision_no[4] 	105283
scalar abilene_cost_network.node[4].content_store 	decision_ratio[4] 	0.0061734804648046
scalar abilene_cost_network.node[4].content_store 	correction_factor[4] 	0.0027225701061802
scalar abilene_cost_network.node[4].content_store 	xi[4] 	1
scalar abilene_cost_network.node[5].core_layer 	interests[5] 	184012
scalar abilene_cost_network.node[5].core_layer 	data[5] 	171124
scalar abilene_cost_network.node[5].content_store 	p_hit[5] 	0.059664587092146
scalar abilene_cost_network.node[5].content_store 	hits[5] 	10979
scalar abilene_cost_network.node[5].content_store 	misses[5] 	173033
scalar abilene_cost_network.node[5].content_store 	decision_yes[5] 	680
scalar abilene_cost_network.node[5].content_store 	decision_no[5] 	170444
scalar abilene_cost_network.node[5].content_store 	decision_ratio[5] 	0.0039737266543559
scalar abilene_cost_network.node[5].content_store 	correction_factor[5] 	0.0027225701061802
scalar abilene_cost_network.node[5].content_store 	xi[5] 	1
scalar abilene_cost_network.node[6].core_layer 	interests[6] 	95950
scalar abilene_cost_network.node[6].core_layer 	data[6] 	50923
scalar abilene_cost_network.node[6].content_store 	p_hit[6] 	0.46927566440855
scalar abilene_cost_network.node[6].content_store 	hits[6] 	45027
scalar abilene_cost_network.node[6].content_store 	misses[6] 	50923
scalar abilene_cost_network.node[6].content_store 	decision_yes[6] 	77
scalar abilene_cost_network.node[6].content_store 	decision_no[6] 	50846
scalar abilene_cost_network.node[6].content_store 	decision_ratio[6] 	0.0015120868762642
scalar abilene_cost_network.node[6].content_store 	correction_factor[6] 	0.0027225701061802
scalar abilene_cost_network.node[6].content_store 	xi[6] 	1
scalar abilene_cost_network.node[7].core_layer 	interests[7] 	142301
scalar abilene_cost_network.node[7].core_layer 	data[7] 	120837
scalar abilene_cost_network.node[7].content_store 	p_hit[7] 	0.14418732124159
scalar abilene_cost_network.node[7].content_store 	hits[7] 	20518
scalar abilene_cost_network.node[7].content_store 	misses[7] 	121783
scalar abilene_cost_network.node[7].content_store 	decision_yes[7] 	195
scalar abilene_cost_network.node[7].content_store 	decision_no[7] 	120642
scalar abilene_cost_network.node[7].content_store 	decision_ratio[7] 	0.0016137441346607
scalar abilene_cost_network.node[7].content_store 	correction_factor[7] 	0.0027225701061802
scalar abilene_cost_network.node[7].content_store 	xi[7] 	1
scalar abilene_cost_network.node[8].core_layer 	interests[8] 	92672
scalar abilene_cost_network.node[8].core_layer 	data[8] 	67401
scalar abilene_cost_network.node[8].content_store 	p_hit[8] 	0.27269293853591
scalar abilene_cost_network.node[8].content_store 	hits[8] 	25271
scalar abilene_cost_network.node[8].content_store 	misses[8] 	67401
scalar abilene_cost_network.node[8].content_store 	decision_yes[8] 	80
scalar abilene_cost_network.node[8].content_store 	decision_no[8] 	67321
scalar abilene_cost_network.node[8].content_store 	decision_ratio[8] 	0.0011869260099999
scalar abilene_cost_network.node[8].content_store 	correction_factor[8] 	0.0027225701061802
scalar abilene_cost_network.node[8].content_store 	xi[8] 	1
scalar abilene_cost_network.node[9].core_layer 	interests[9] 	190042
scalar abilene_cost_network.node[9].core_layer 	data[9] 	171277
scalar abilene_cost_network.node[9].content_store 	p_hit[9] 	0.079703433977752
scalar abilene_cost_network.node[9].content_store 	hits[9] 	15147
scalar abilene_cost_network.node[9].content_store 	misses[9] 	174895
scalar abilene_cost_network.node[9].content_store 	decision_yes[9] 	723
scalar abilene_cost_network.node[9].content_store 	decision_no[9] 	170554
scalar abilene_cost_network.node[9].content_store 	decision_ratio[9] 	0.0042212322728679
scalar abilene_cost_network.node[9].content_store 	correction_factor[9] 	0.0027225701061802
scalar abilene_cost_network.node[9].content_store 	xi[9] 	1
scalar abilene_cost_network.node[10].core_layer 	interests[10] 	223626
scalar abilene_cost_network.node[10].core_layer 	data[10] 	191520
scalar abilene_cost_network.node[10].content_store 	p_hit[10] 	0.14357006788119
scalar abilene_cost_network.node[10].content_store 	hits[10] 	32106
scalar abilene_cost_network.node[10].content_store 	misses[10] 	191520
scalar abilene_cost_network.node[10].content_store 	decision_yes[10] 	627
scalar abilene_cost_network.node[10].content_store 	decision_no[10] 	190893
scalar abilene_cost_network.node[10].content_store 	decision_ratio[10] 	0.0032738095238095
scalar abilene_cost_network.node[10].content_store 	correction_factor[10] 	0.0027225701061802
scalar abilene_cost_network.node[10].content_store 	xi[10] 	1
scalar abilene_cost_network.node[11].core_layer 	interests[11] 	145874
scalar abilene_cost_network.node[11].core_layer 	repo_load[11] 	145874
scalar abilene_cost_network.node[11].core_layer 	data[11] 	0
scalar abilene_cost_network.node[11].content_store 	p_hit[11] 	0
scalar abilene_cost_network.node[11].content_store 	hits[11] 	0
scalar abilene_cost_network.node[11].content_store 	misses[11] 	145874
scalar abilene_cost_network.node[11].content_store 	decision_yes[11] 	0
scalar abilene_cost_network.node[11].content_store 	decision_no[11] 	145874
scalar abilene_cost_network.node[11].content_store 	decision_ratio[11] 	0
scalar abilene_cost_network.node[12].core_layer 	interests[12] 	77075
scalar abilene_cost_network.node[12].core_layer 	repo_load[12] 	77075
scalar abilene_cost_network.node[12].core_layer 	data[12] 	0
scalar abilene_cost_network.node[12].content_store 	p_hit[12] 	0
scalar abilene_cost_network.node[12].content_store 	hits[12] 	0
scalar abilene_cost_network.node[12].content_store 	misses[12] 	77075
scalar abilene_cost_network.node[12].content_store 	decision_yes[12] 	0
scalar abilene_cost_network.node[12].content_store 	decision_no[12] 	77075
scalar abilene_cost_network.node[12].content_store 	decision_ratio[12] 	0
scalar abilene_cost_network.node[13].core_layer 	interests[13] 	69895
scalar abilene_cost_network.node[13].core_layer 	repo_load[13] 	69895
scalar abilene_cost_network.node[13].core_layer 	data[13] 	0
scalar abilene_cost_network.node[13].content_store 	p_hit[13] 	0
scalar abilene_cost_network.node[13].content_store 	hits[13] 	0
scalar abilene_cost_network.node[13].content_store 	misses[13] 	69895
scalar abilene_cost_network.node[13].content_store 	decision_yes[13] 	0
scalar abilene_cost_network.node[13].content_store 	decision_no[13] 	69895
scalar abilene_cost_network.node[13].content_store 	decision_ratio[13] 	0
scalar abilene_cost_network.client[0] 	hdistance[0] 	3.1890790916477
scalar abilene_cost_network.client[0] 	downloads[0] 	176011
scalar abilene_cost_network.client[0] 	avg_time[0] 	0.015038832432
scalar abilene_cost_network.client[0] 	interests_sent[0] 	180065
scalar abilene_cost_network.client[5] 	hdistance[5] 	4.4242956751687
scalar abilene_cost_network.client[5] 	downloads[5] 	176978
scalar abilene_cost_network.client[5] 	avg_time[5] 	0.018039410082
scalar abilene_cost_network.client[5] 	interests_sent[5] 	178887
scalar abilene_cost_network.client[9] 	hdistance[9] 	2.8254408188945
scalar abilene_cost_network.client[9] 	downloads[9] 	176433
scalar abilene_cost_network.client[9] 	avg_time[9] 	0.013505408502
scalar abilene_cost_network.client[9] 	interests_sent[9] 	180051
