version 2
run General-340-20140502-10:30:24-13500
attr D costprob0.01
attr F nrr
attr R lru
attr a 1
attr configname General
attr csize 1e3
attr ctlg 1e5
attr datetime 20140502-10:30:24
attr experiment General
attr inifile omnetpp.ini
attr iterationvars "$net=three_caches_scenario_3_links, $rep=3, $priceratiovalue=2, $weights=0.333_0.333_0.334, $a=1, $ctlg=1e5, $F=nrr, $ttl=1000, $D=costprob0.01, $xi=1, $R=lru, $csize=1e3"
attr iterationvars2 "$net=three_caches_scenario_3_links, $rep=3, $priceratiovalue=2, $weights=0.333_0.333_0.334, $a=1, $ctlg=1e5, $F=nrr, $ttl=1000, $D=costprob0.01, $xi=1, $R=lru, $csize=1e3, $repetition=0"
attr measurement "$net=three_caches_scenario_3_links, $rep=3, $priceratiovalue=2, $weights=0.333_0.333_0.334, $a=1, $ctlg=1e5, $F=nrr, $ttl=1000, $D=costprob0.01, $xi=1, $R=lru, $csize=1e3"
attr net three_caches_scenario_3_links
attr network networks.${net=three_caches_scenario_3_links}_network
attr priceratiovalue 2
attr processid 13500
attr rep 3
attr repetition 0
attr replication #0
attr resultdir results
attr runnumber 340
attr seedset 3
attr ttl 1000
attr weights 0.333_0.333_0.334
attr xi 1

scalar . 	a 	1
scalar . 	csize 	1e3
scalar . 	ctlg 	1e5
scalar . 	priceratiovalue 	2
scalar . 	rep 	3
scalar . 	ttl 	1000
scalar . 	xi 	1
scalar three_caches_scenario_3_links_network.content_distribution 	repo-0 	4
scalar three_caches_scenario_3_links_network.content_distribution 	repo-1 	5
scalar three_caches_scenario_3_links_network.content_distribution 	repo-2 	6
scalar three_caches_scenario_3_links_network.content_distribution 	client-0 	0
scalar three_caches_scenario_3_links_network.content_distribution 	repo-0_card 	33329
scalar three_caches_scenario_3_links_network.content_distribution 	repo-1_card 	33051
scalar three_caches_scenario_3_links_network.content_distribution 	repo-2_card 	33620
scalar three_caches_scenario_3_links_network.statistics 	p_hit 	0.13180337411981
scalar three_caches_scenario_3_links_network.statistics 	interests 	63805
scalar three_caches_scenario_3_links_network.statistics 	data 	38127.142857143
scalar three_caches_scenario_3_links_network.statistics 	hdistance 	1.752599515981
scalar three_caches_scenario_3_links_network.statistics 	avg_time 	0
scalar three_caches_scenario_3_links_network.statistics 	downloads 	179745
scalar three_caches_scenario_3_links_network.statistics 	total_cost 	71610
scalar three_caches_scenario_3_links_network.statistics 	total_replicas 	100000
scalar three_caches_scenario_3_links_network.statistics 	interests_sent 	179745
scalar three_caches_scenario_3_links_network.node[0].core_layer 	interests[0] 	179745
scalar three_caches_scenario_3_links_network.node[0].core_layer 	data[0] 	146013
scalar three_caches_scenario_3_links_network.node[0].core_layer 	repo_int[0] 	120877
scalar three_caches_scenario_3_links_network.node[0].content_store 	p_hit[0] 	0.18766585996829
scalar three_caches_scenario_3_links_network.node[0].content_store 	hits[0] 	33732
scalar three_caches_scenario_3_links_network.node[0].content_store 	misses[0] 	146013
scalar three_caches_scenario_3_links_network.node[0].content_store 	decision_yes[0] 	738
scalar three_caches_scenario_3_links_network.node[0].content_store 	decision_no[0] 	145275
scalar three_caches_scenario_3_links_network.node[1].core_layer 	interests[1] 	72746
scalar three_caches_scenario_3_links_network.node[1].core_layer 	data[1] 	72746
scalar three_caches_scenario_3_links_network.node[1].content_store 	p_hit[1] 	0
scalar three_caches_scenario_3_links_network.node[1].content_store 	hits[1] 	0
scalar three_caches_scenario_3_links_network.node[1].content_store 	misses[1] 	72746
scalar three_caches_scenario_3_links_network.node[1].content_store 	decision_yes[1] 	0
scalar three_caches_scenario_3_links_network.node[1].content_store 	decision_no[1] 	72746
scalar three_caches_scenario_3_links_network.node[2].core_layer 	interests[2] 	36131
scalar three_caches_scenario_3_links_network.node[2].core_layer 	data[2] 	24652
scalar three_caches_scenario_3_links_network.node[2].content_store 	p_hit[2] 	0.31770501785171
scalar three_caches_scenario_3_links_network.node[2].content_store 	hits[2] 	11479
scalar three_caches_scenario_3_links_network.node[2].content_store 	misses[2] 	24652
scalar three_caches_scenario_3_links_network.node[2].content_store 	decision_yes[2] 	233
scalar three_caches_scenario_3_links_network.node[2].content_store 	decision_no[2] 	24419
scalar three_caches_scenario_3_links_network.node[3].core_layer 	interests[3] 	37136
scalar three_caches_scenario_3_links_network.node[3].core_layer 	data[3] 	23479
scalar three_caches_scenario_3_links_network.node[3].content_store 	p_hit[3] 	0.36775635501939
scalar three_caches_scenario_3_links_network.node[3].content_store 	hits[3] 	13657
scalar three_caches_scenario_3_links_network.node[3].content_store 	misses[3] 	23479
scalar three_caches_scenario_3_links_network.node[3].content_store 	decision_yes[3] 	497
scalar three_caches_scenario_3_links_network.node[3].content_store 	decision_no[3] 	22982
scalar three_caches_scenario_3_links_network.node[4].core_layer 	interests[4] 	72746
scalar three_caches_scenario_3_links_network.node[4].core_layer 	repo_load[4] 	72746
scalar three_caches_scenario_3_links_network.node[4].core_layer 	data[4] 	0
scalar three_caches_scenario_3_links_network.node[4].content_store 	p_hit[4] 	0
scalar three_caches_scenario_3_links_network.node[4].content_store 	hits[4] 	0
scalar three_caches_scenario_3_links_network.node[4].content_store 	misses[4] 	72746
scalar three_caches_scenario_3_links_network.node[4].content_store 	decision_yes[4] 	0
scalar three_caches_scenario_3_links_network.node[4].content_store 	decision_no[4] 	72746
scalar three_caches_scenario_3_links_network.node[5].core_layer 	interests[5] 	24652
scalar three_caches_scenario_3_links_network.node[5].core_layer 	repo_load[5] 	24652
scalar three_caches_scenario_3_links_network.node[5].core_layer 	data[5] 	0
scalar three_caches_scenario_3_links_network.node[5].content_store 	p_hit[5] 	0
scalar three_caches_scenario_3_links_network.node[5].content_store 	hits[5] 	0
scalar three_caches_scenario_3_links_network.node[5].content_store 	misses[5] 	24652
scalar three_caches_scenario_3_links_network.node[5].content_store 	decision_yes[5] 	0
scalar three_caches_scenario_3_links_network.node[5].content_store 	decision_no[5] 	24652
scalar three_caches_scenario_3_links_network.node[6].core_layer 	interests[6] 	23479
scalar three_caches_scenario_3_links_network.node[6].core_layer 	repo_load[6] 	23479
scalar three_caches_scenario_3_links_network.node[6].core_layer 	data[6] 	0
scalar three_caches_scenario_3_links_network.node[6].content_store 	p_hit[6] 	0
scalar three_caches_scenario_3_links_network.node[6].content_store 	hits[6] 	0
scalar three_caches_scenario_3_links_network.node[6].content_store 	misses[6] 	23479
scalar three_caches_scenario_3_links_network.node[6].content_store 	decision_yes[6] 	0
scalar three_caches_scenario_3_links_network.node[6].content_store 	decision_no[6] 	23479
scalar three_caches_scenario_3_links_network.client[0] 	hdistance[0] 	1.752599515981
scalar three_caches_scenario_3_links_network.client[0] 	downloads[0] 	179745
scalar three_caches_scenario_3_links_network.client[0] 	avg_time[0] 	0
scalar three_caches_scenario_3_links_network.client[0] 	interests_sent[0] 	179745
