version 2
run General-0-20140708-17:21:44-17204
attr D costprobtailcons
attr F nrr
attr R lru
attr a 1
attr configname General
attr csize 1e3
attr ctlg 1e5
attr datetime 20140708-17:21:44
attr experiment General
attr inifile omnetpp.ini
attr iterationvars "$net=abilene_cost, $rep=1, $priceratiovalue=10, $weights=0.333_0.333_0.334, $lambda=100, $a=1, $ctlg=1e5, $F=nrr, $ttl=1000, $D=costprobtailcons, $xi=1, $R=lru, $csize=1e3, $pricebits=0, $window=60, $variance=0.05, $mytime=1800"
attr iterationvars2 "$net=abilene_cost, $rep=1, $priceratiovalue=10, $weights=0.333_0.333_0.334, $lambda=100, $a=1, $ctlg=1e5, $F=nrr, $ttl=1000, $D=costprobtailcons, $xi=1, $R=lru, $csize=1e3, $pricebits=0, $window=60, $variance=0.05, $mytime=1800, $repetition=0"
attr lambda 100
attr measurement "$net=abilene_cost, $rep=1, $priceratiovalue=10, $weights=0.333_0.333_0.334, $lambda=100, $a=1, $ctlg=1e5, $F=nrr, $ttl=1000, $D=costprobtailcons, $xi=1, $R=lru, $csize=1e3, $pricebits=0, $window=60, $variance=0.05, $mytime=1800"
attr mytime 1800
attr net abilene_cost
attr network "networks.${net=abilene_cost, geant_cost}_network"
attr pricebits 0
attr priceratiovalue 10
attr processid 17204
attr rep 1
attr repetition 0
attr replication #0
attr resultdir results
attr runnumber 0
attr seedset 1
attr ttl 1000
attr variance 0.05
attr weights 0.333_0.333_0.334
attr window 60
attr xi 1

scalar . 	a 	1
scalar . 	csize 	1e3
scalar . 	ctlg 	1e5
scalar . 	lambda 	100
scalar . 	mytime 	1800
scalar . 	pricebits 	0
scalar . 	priceratiovalue 	10
scalar . 	rep 	1
scalar . 	ttl 	1000
scalar . 	variance 	0.05
scalar . 	window 	60
scalar . 	xi 	1
scalar abilene_cost_network.content_distribution 	repo-0 	11
scalar abilene_cost_network.content_distribution 	repo-1 	12
scalar abilene_cost_network.content_distribution 	repo-2 	13
scalar abilene_cost_network.content_distribution 	client-0 	5
scalar abilene_cost_network.content_distribution 	client-1 	0
scalar abilene_cost_network.content_distribution 	client-2 	9
scalar abilene_cost_network.content_distribution 	repo-0_card 	33396
scalar abilene_cost_network.content_distribution 	repo-1_card 	33039
scalar abilene_cost_network.content_distribution 	repo-2_card 	33565
scalar abilene_cost_network.statistics 	repo_popularity[0] 	0.28686251265602
scalar abilene_cost_network.statistics 	repo_popularity[1] 	0.2886063426465
scalar abilene_cost_network.statistics 	repo_popularity[2] 	0.42453114469748
scalar abilene_cost_network.statistics 	stabilization_time 	65.5
scalar abilene_cost_network.node[1].face$o[4].channel 	price[1] 	0
scalar abilene_cost_network.node[1].face$o[4].channel 	represented_price[1] 	0
scalar abilene_cost_network.node[7].face$o[4].channel 	price[7] 	0
scalar abilene_cost_network.node[7].face$o[4].channel 	represented_price[7] 	0
scalar abilene_cost_network.node[10].face$o[4].channel 	price[10] 	0
scalar abilene_cost_network.node[10].face$o[4].channel 	represented_price[10] 	0
scalar abilene_cost_network.node[11].face$o[1].channel 	price[11] 	0
scalar abilene_cost_network.node[11].face$o[1].channel 	represented_price[11] 	0
scalar abilene_cost_network.node[12].face$o[1].channel 	price[12] 	1
scalar abilene_cost_network.node[12].face$o[1].channel 	represented_price[12] 	1
scalar abilene_cost_network.node[13].face$o[1].channel 	price[13] 	10
scalar abilene_cost_network.node[13].face$o[1].channel 	represented_price[13] 	10
scalar abilene_cost_network.statistics 	p_hit 	0.1194619487536
scalar abilene_cost_network.statistics 	interests 	140974.35714286
scalar abilene_cost_network.statistics 	data 	102416.42857143
scalar abilene_cost_network.statistics 	hdistance 	3.246032116925
scalar abilene_cost_network.statistics 	avg_time 	0.013780876206
scalar abilene_cost_network.statistics 	downloads 	533976
scalar abilene_cost_network.statistics 	total_cost 	764279
scalar abilene_cost_network.statistics 	total_replicas 	100000
scalar abilene_cost_network.statistics 	inner_hit 	0.4415460619953
scalar abilene_cost_network.statistics 	interests_sent 	539807
scalar abilene_cost_network.node[0].core_layer 	interests[0] 	194404
scalar abilene_cost_network.node[0].core_layer 	data[0] 	156943
scalar abilene_cost_network.node[0].core_layer 	repo_int[0] 	298201
scalar abilene_cost_network.node[0].content_store 	p_hit[0] 	0.18824715540832
scalar abilene_cost_network.node[0].content_store 	hits[0] 	36596
scalar abilene_cost_network.node[0].content_store 	misses[0] 	157808
scalar abilene_cost_network.node[0].content_store 	decision_yes[0] 	110
scalar abilene_cost_network.node[0].content_store 	decision_no[0] 	156833
scalar abilene_cost_network.node[0].content_store 	decision_ratio[0] 	0.00070089140643418
scalar abilene_cost_network.node[0].content_store 	correction_factor[0] 	8.8010877887576e-317
scalar abilene_cost_network.node[0].content_store 	xi[0] 	1
scalar abilene_cost_network.node[1].core_layer 	interests[1] 	228102
scalar abilene_cost_network.node[1].core_layer 	data[1] 	168735
scalar abilene_cost_network.node[1].content_store 	p_hit[1] 	0.2602651445406
scalar abilene_cost_network.node[1].content_store 	hits[1] 	59367
scalar abilene_cost_network.node[1].content_store 	misses[1] 	168735
scalar abilene_cost_network.node[1].content_store 	decision_yes[1] 	78
scalar abilene_cost_network.node[1].content_store 	decision_no[1] 	168657
scalar abilene_cost_network.node[1].content_store 	decision_ratio[1] 	0.00046226331229443
scalar abilene_cost_network.node[1].content_store 	correction_factor[1] 	8.802115445301e-317
scalar abilene_cost_network.node[1].content_store 	xi[1] 	1
scalar abilene_cost_network.node[2].core_layer 	interests[2] 	156808
scalar abilene_cost_network.node[2].core_layer 	data[2] 	141410
scalar abilene_cost_network.node[2].content_store 	p_hit[2] 	0.098190143360033
scalar abilene_cost_network.node[2].content_store 	hits[2] 	15397
scalar abilene_cost_network.node[2].content_store 	misses[2] 	141411
scalar abilene_cost_network.node[2].content_store 	decision_yes[2] 	115
scalar abilene_cost_network.node[2].content_store 	decision_no[2] 	141295
scalar abilene_cost_network.node[2].content_store 	decision_ratio[2] 	0.00081323810197299
scalar abilene_cost_network.node[2].content_store 	correction_factor[2] 	8.8071430573131e-317
scalar abilene_cost_network.node[2].content_store 	xi[2] 	1
scalar abilene_cost_network.node[3].core_layer 	interests[3] 	142582
scalar abilene_cost_network.node[3].core_layer 	data[3] 	140007
scalar abilene_cost_network.node[3].content_store 	p_hit[3] 	0.018052769634316
scalar abilene_cost_network.node[3].content_store 	hits[3] 	2574
scalar abilene_cost_network.node[3].content_store 	misses[3] 	140008
scalar abilene_cost_network.node[3].content_store 	decision_yes[3] 	0
scalar abilene_cost_network.node[3].content_store 	decision_no[3] 	140007
scalar abilene_cost_network.node[3].content_store 	decision_ratio[3] 	0
scalar abilene_cost_network.node[3].content_store 	correction_factor[3] 	8.814324795541e-317
scalar abilene_cost_network.node[3].content_store 	xi[3] 	1
scalar abilene_cost_network.node[4].core_layer 	interests[4] 	105630
scalar abilene_cost_network.node[4].core_layer 	data[4] 	104320
scalar abilene_cost_network.node[4].content_store 	p_hit[4] 	0.012392312789927
scalar abilene_cost_network.node[4].content_store 	hits[4] 	1309
scalar abilene_cost_network.node[4].content_store 	misses[4] 	104321
scalar abilene_cost_network.node[4].content_store 	decision_yes[4] 	0
scalar abilene_cost_network.node[4].content_store 	decision_no[4] 	104320
scalar abilene_cost_network.node[4].content_store 	decision_ratio[4] 	0
scalar abilene_cost_network.node[4].content_store 	correction_factor[4] 	8.8109295764228e-317
scalar abilene_cost_network.node[4].content_store 	xi[4] 	1
scalar abilene_cost_network.node[5].core_layer 	interests[5] 	181574
scalar abilene_cost_network.node[5].core_layer 	data[5] 	153469
scalar abilene_cost_network.node[5].content_store 	p_hit[5] 	0.13940321852248
scalar abilene_cost_network.node[5].content_store 	hits[5] 	25312
scalar abilene_cost_network.node[5].content_store 	misses[5] 	156262
scalar abilene_cost_network.node[5].content_store 	decision_yes[5] 	91
scalar abilene_cost_network.node[5].content_store 	decision_no[5] 	153378
scalar abilene_cost_network.node[5].content_store 	decision_ratio[5] 	0.00059295362581368
scalar abilene_cost_network.node[5].content_store 	correction_factor[5] 	8.8182140803051e-317
scalar abilene_cost_network.node[5].content_store 	xi[5] 	1
scalar abilene_cost_network.node[6].core_layer 	interests[6] 	52892
scalar abilene_cost_network.node[6].core_layer 	data[6] 	48158
scalar abilene_cost_network.node[6].content_store 	p_hit[6] 	0.089503138470846
scalar abilene_cost_network.node[6].content_store 	hits[6] 	4734
scalar abilene_cost_network.node[6].content_store 	misses[6] 	48158
scalar abilene_cost_network.node[6].content_store 	decision_yes[6] 	0
scalar abilene_cost_network.node[6].content_store 	decision_no[6] 	48158
scalar abilene_cost_network.node[6].content_store 	decision_ratio[6] 	0
scalar abilene_cost_network.node[6].content_store 	correction_factor[6] 	8.8109295764228e-317
scalar abilene_cost_network.node[6].content_store 	xi[6] 	1
scalar abilene_cost_network.node[7].core_layer 	interests[7] 	123391
scalar abilene_cost_network.node[7].core_layer 	data[7] 	88630
scalar abilene_cost_network.node[7].content_store 	p_hit[7] 	0.28170612119198
scalar abilene_cost_network.node[7].content_store 	hits[7] 	34760
scalar abilene_cost_network.node[7].content_store 	misses[7] 	88631
scalar abilene_cost_network.node[7].content_store 	decision_yes[7] 	131
scalar abilene_cost_network.node[7].content_store 	decision_no[7] 	88499
scalar abilene_cost_network.node[7].content_store 	decision_ratio[7] 	0.0014780548347061
scalar abilene_cost_network.node[7].content_store 	correction_factor[7] 	8.8222614660758e-317
scalar abilene_cost_network.node[7].content_store 	xi[7] 	1
scalar abilene_cost_network.node[8].core_layer 	interests[8] 	64130
scalar abilene_cost_network.node[8].core_layer 	data[8] 	57406
scalar abilene_cost_network.node[8].content_store 	p_hit[8] 	0.10484952440356
scalar abilene_cost_network.node[8].content_store 	hits[8] 	6724
scalar abilene_cost_network.node[8].content_store 	misses[8] 	57406
scalar abilene_cost_network.node[8].content_store 	decision_yes[8] 	0
scalar abilene_cost_network.node[8].content_store 	decision_no[8] 	57406
scalar abilene_cost_network.node[8].content_store 	decision_ratio[8] 	0
scalar abilene_cost_network.node[8].content_store 	correction_factor[8] 	8.8065422734877e-317
scalar abilene_cost_network.node[8].content_store 	xi[8] 	1
scalar abilene_cost_network.node[9].core_layer 	interests[9] 	196913
scalar abilene_cost_network.node[9].core_layer 	data[9] 	158380
scalar abilene_cost_network.node[9].content_store 	p_hit[9] 	0.1846500738905
scalar abilene_cost_network.node[9].content_store 	hits[9] 	36360
scalar abilene_cost_network.node[9].content_store 	misses[9] 	160553
scalar abilene_cost_network.node[9].content_store 	decision_yes[9] 	76
scalar abilene_cost_network.node[9].content_store 	decision_no[9] 	158304
scalar abilene_cost_network.node[9].content_store 	decision_ratio[9] 	0.00047985856800101
scalar abilene_cost_network.node[9].content_store 	correction_factor[9] 	8.8065422734877e-317
scalar abilene_cost_network.node[9].content_store 	xi[9] 	1
scalar abilene_cost_network.node[10].core_layer 	interests[10] 	229014
scalar abilene_cost_network.node[10].core_layer 	data[10] 	216372
scalar abilene_cost_network.node[10].content_store 	p_hit[10] 	0.055201865388142
scalar abilene_cost_network.node[10].content_store 	hits[10] 	12642
scalar abilene_cost_network.node[10].content_store 	misses[10] 	216372
scalar abilene_cost_network.node[10].content_store 	decision_yes[10] 	60
scalar abilene_cost_network.node[10].content_store 	decision_no[10] 	216312
scalar abilene_cost_network.node[10].content_store 	decision_ratio[10] 	0.00027730020520215
scalar abilene_cost_network.node[10].content_store 	correction_factor[10] 	8.8228662024263e-317
scalar abilene_cost_network.node[10].content_store 	xi[10] 	1
scalar abilene_cost_network.node[11].core_layer 	interests[11] 	154229
scalar abilene_cost_network.node[11].core_layer 	repo_load[11] 	154229
scalar abilene_cost_network.node[11].core_layer 	data[11] 	0
scalar abilene_cost_network.node[11].content_store 	p_hit[11] 	0
scalar abilene_cost_network.node[11].content_store 	hits[11] 	0
scalar abilene_cost_network.node[11].content_store 	misses[11] 	154229
scalar abilene_cost_network.node[11].content_store 	decision_yes[11] 	0
scalar abilene_cost_network.node[11].content_store 	decision_no[11] 	154229
scalar abilene_cost_network.node[11].content_store 	decision_ratio[11] 	0
scalar abilene_cost_network.node[12].core_layer 	interests[12] 	75049
scalar abilene_cost_network.node[12].core_layer 	repo_load[12] 	75049
scalar abilene_cost_network.node[12].core_layer 	data[12] 	0
scalar abilene_cost_network.node[12].content_store 	p_hit[12] 	0
scalar abilene_cost_network.node[12].content_store 	hits[12] 	0
scalar abilene_cost_network.node[12].content_store 	misses[12] 	75049
scalar abilene_cost_network.node[12].content_store 	decision_yes[12] 	0
scalar abilene_cost_network.node[12].content_store 	decision_no[12] 	75049
scalar abilene_cost_network.node[12].content_store 	decision_ratio[12] 	0
scalar abilene_cost_network.node[13].core_layer 	interests[13] 	68923
scalar abilene_cost_network.node[13].core_layer 	repo_load[13] 	68923
scalar abilene_cost_network.node[13].core_layer 	data[13] 	0
scalar abilene_cost_network.node[13].content_store 	p_hit[13] 	0
scalar abilene_cost_network.node[13].content_store 	hits[13] 	0
scalar abilene_cost_network.node[13].content_store 	misses[13] 	68923
scalar abilene_cost_network.node[13].content_store 	decision_yes[13] 	0
scalar abilene_cost_network.node[13].content_store 	decision_no[13] 	68923
scalar abilene_cost_network.node[13].content_store 	decision_ratio[13] 	0
scalar abilene_cost_network.client[0] 	hdistance[0] 	2.7401235118384
scalar abilene_cost_network.client[0] 	downloads[0] 	179416
scalar abilene_cost_network.client[0] 	avg_time[0] 	0.012103249696
scalar abilene_cost_network.client[0] 	interests_sent[0] 	180281
scalar abilene_cost_network.client[5] 	hdistance[5] 	4.3871739731671
scalar abilene_cost_network.client[5] 	downloads[5] 	177171
scalar abilene_cost_network.client[5] 	avg_time[5] 	0.017959878596
scalar abilene_cost_network.client[5] 	interests_sent[5] 	179964
scalar abilene_cost_network.client[9] 	hdistance[9] 	2.6107988657696
scalar abilene_cost_network.client[9] 	downloads[9] 	177389
scalar abilene_cost_network.client[9] 	avg_time[9] 	0.011279500326
scalar abilene_cost_network.client[9] 	interests_sent[9] 	179562
