version 2
run General-26-20140708-17:24:29-17232
attr D costprobtailcons
attr F nrr
attr R lru
attr a 1
attr configname General
attr csize 1e3
attr ctlg 1e5
attr datetime 20140708-17:24:29
attr experiment General
attr inifile omnetpp.ini
attr iterationvars "$net=abilene_cost, $rep=14, $priceratiovalue=10, $weights=0.333_0.333_0.334, $lambda=100, $a=1, $ctlg=1e5, $F=nrr, $ttl=1000, $D=costprobtailcons, $xi=1, $R=lru, $csize=1e3, $pricebits=0, $window=60, $variance=0.05, $mytime=1800"
attr iterationvars2 "$net=abilene_cost, $rep=14, $priceratiovalue=10, $weights=0.333_0.333_0.334, $lambda=100, $a=1, $ctlg=1e5, $F=nrr, $ttl=1000, $D=costprobtailcons, $xi=1, $R=lru, $csize=1e3, $pricebits=0, $window=60, $variance=0.05, $mytime=1800, $repetition=0"
attr lambda 100
attr measurement "$net=abilene_cost, $rep=14, $priceratiovalue=10, $weights=0.333_0.333_0.334, $lambda=100, $a=1, $ctlg=1e5, $F=nrr, $ttl=1000, $D=costprobtailcons, $xi=1, $R=lru, $csize=1e3, $pricebits=0, $window=60, $variance=0.05, $mytime=1800"
attr mytime 1800
attr net abilene_cost
attr network "networks.${net=abilene_cost, geant_cost}_network"
attr pricebits 0
attr priceratiovalue 10
attr processid 17232
attr rep 14
attr repetition 0
attr replication #0
attr resultdir results
attr runnumber 26
attr seedset 14
attr ttl 1000
attr variance 0.05
attr weights 0.333_0.333_0.334
attr window 60
attr xi 1

scalar . 	a 	1
scalar . 	csize 	1e3
scalar . 	ctlg 	1e5
scalar . 	lambda 	100
scalar . 	mytime 	1800
scalar . 	pricebits 	0
scalar . 	priceratiovalue 	10
scalar . 	rep 	14
scalar . 	ttl 	1000
scalar . 	variance 	0.05
scalar . 	window 	60
scalar . 	xi 	1
scalar abilene_cost_network.content_distribution 	repo-0 	11
scalar abilene_cost_network.content_distribution 	repo-1 	12
scalar abilene_cost_network.content_distribution 	repo-2 	13
scalar abilene_cost_network.content_distribution 	client-0 	5
scalar abilene_cost_network.content_distribution 	client-1 	0
scalar abilene_cost_network.content_distribution 	client-2 	9
scalar abilene_cost_network.content_distribution 	repo-0_card 	32966
scalar abilene_cost_network.content_distribution 	repo-1_card 	33555
scalar abilene_cost_network.content_distribution 	repo-2_card 	33479
scalar abilene_cost_network.statistics 	repo_popularity[0] 	0.41551934442987
scalar abilene_cost_network.statistics 	repo_popularity[1] 	0.31847271720617
scalar abilene_cost_network.statistics 	repo_popularity[2] 	0.26600793836396
scalar abilene_cost_network.statistics 	stabilization_time 	65.8
scalar abilene_cost_network.node[1].face$o[4].channel 	price[1] 	0
scalar abilene_cost_network.node[1].face$o[4].channel 	represented_price[1] 	0
scalar abilene_cost_network.node[7].face$o[4].channel 	price[7] 	0
scalar abilene_cost_network.node[7].face$o[4].channel 	represented_price[7] 	0
scalar abilene_cost_network.node[10].face$o[4].channel 	price[10] 	0
scalar abilene_cost_network.node[10].face$o[4].channel 	represented_price[10] 	0
scalar abilene_cost_network.node[11].face$o[1].channel 	price[11] 	0
scalar abilene_cost_network.node[11].face$o[1].channel 	represented_price[11] 	0
scalar abilene_cost_network.node[12].face$o[1].channel 	price[12] 	1
scalar abilene_cost_network.node[12].face$o[1].channel 	represented_price[12] 	1
scalar abilene_cost_network.node[13].face$o[1].channel 	price[13] 	10
scalar abilene_cost_network.node[13].face$o[1].channel 	represented_price[13] 	10
scalar abilene_cost_network.statistics 	p_hit 	0.080911278191157
scalar abilene_cost_network.statistics 	interests 	148764.35714286
scalar abilene_cost_network.statistics 	data 	110213.07142857
scalar abilene_cost_network.statistics 	hdistance 	3.5871889898568
scalar abilene_cost_network.statistics 	avg_time 	0.014200676211
scalar abilene_cost_network.statistics 	downloads 	532869
scalar abilene_cost_network.statistics 	total_cost 	771976
scalar abilene_cost_network.statistics 	total_replicas 	100000
scalar abilene_cost_network.statistics 	inner_hit 	0.31624658218061
scalar abilene_cost_network.statistics 	interests_sent 	539727
scalar abilene_cost_network.node[0].core_layer 	interests[0] 	192681
scalar abilene_cost_network.node[0].core_layer 	data[0] 	159296
scalar abilene_cost_network.node[0].core_layer 	repo_int[0] 	364351
scalar abilene_cost_network.node[0].content_store 	p_hit[0] 	0.16531469112159
scalar abilene_cost_network.node[0].content_store 	hits[0] 	31853
scalar abilene_cost_network.node[0].content_store 	misses[0] 	160828
scalar abilene_cost_network.node[0].content_store 	decision_yes[0] 	100
scalar abilene_cost_network.node[0].content_store 	decision_no[0] 	159196
scalar abilene_cost_network.node[0].content_store 	decision_ratio[0] 	0.00062776215347529
scalar abilene_cost_network.node[0].content_store 	correction_factor[0] 	1.1811852689061e-316
scalar abilene_cost_network.node[0].content_store 	xi[0] 	1
scalar abilene_cost_network.node[1].core_layer 	interests[1] 	212351
scalar abilene_cost_network.node[1].core_layer 	data[1] 	191034
scalar abilene_cost_network.node[1].content_store 	p_hit[1] 	0.10039039138031
scalar abilene_cost_network.node[1].content_store 	hits[1] 	21318
scalar abilene_cost_network.node[1].content_store 	misses[1] 	191033
scalar abilene_cost_network.node[1].content_store 	decision_yes[1] 	114
scalar abilene_cost_network.node[1].content_store 	decision_no[1] 	190920
scalar abilene_cost_network.node[1].content_store 	decision_ratio[1] 	0.00059675241056566
scalar abilene_cost_network.node[1].content_store 	correction_factor[1] 	1.1811773638558e-316
scalar abilene_cost_network.node[1].content_store 	xi[1] 	1
scalar abilene_cost_network.node[2].core_layer 	interests[2] 	161950
scalar abilene_cost_network.node[2].core_layer 	data[2] 	148109
scalar abilene_cost_network.node[2].content_store 	p_hit[2] 	0.085470824328496
scalar abilene_cost_network.node[2].content_store 	hits[2] 	13842
scalar abilene_cost_network.node[2].content_store 	misses[2] 	148108
scalar abilene_cost_network.node[2].content_store 	decision_yes[2] 	197
scalar abilene_cost_network.node[2].content_store 	decision_no[2] 	147912
scalar abilene_cost_network.node[2].content_store 	decision_ratio[2] 	0.0013301014793159
scalar abilene_cost_network.node[2].content_store 	correction_factor[2] 	1.1811425816343e-316
scalar abilene_cost_network.node[2].content_store 	xi[2] 	1
scalar abilene_cost_network.node[3].core_layer 	interests[3] 	153246
scalar abilene_cost_network.node[3].core_layer 	data[3] 	146395
scalar abilene_cost_network.node[3].content_store 	p_hit[3] 	0.044712423162758
scalar abilene_cost_network.node[3].content_store 	hits[3] 	6852
scalar abilene_cost_network.node[3].content_store 	misses[3] 	146394
scalar abilene_cost_network.node[3].content_store 	decision_yes[3] 	0
scalar abilene_cost_network.node[3].content_store 	decision_no[3] 	146395
scalar abilene_cost_network.node[3].content_store 	decision_ratio[3] 	0
scalar abilene_cost_network.node[3].content_store 	correction_factor[3] 	1.1810508830504e-316
scalar abilene_cost_network.node[3].content_store 	xi[3] 	1
scalar abilene_cost_network.node[4].core_layer 	interests[4] 	115728
scalar abilene_cost_network.node[4].core_layer 	data[4] 	114409
scalar abilene_cost_network.node[4].content_store 	p_hit[4] 	0.011406055578598
scalar abilene_cost_network.node[4].content_store 	hits[4] 	1320
scalar abilene_cost_network.node[4].content_store 	misses[4] 	114408
scalar abilene_cost_network.node[4].content_store 	decision_yes[4] 	0
scalar abilene_cost_network.node[4].content_store 	decision_no[4] 	114409
scalar abilene_cost_network.node[4].content_store 	decision_ratio[4] 	0
scalar abilene_cost_network.node[4].content_store 	correction_factor[4] 	1.1818255779831e-316
scalar abilene_cost_network.node[4].content_store 	xi[4] 	1
scalar abilene_cost_network.node[5].core_layer 	interests[5] 	181138
scalar abilene_cost_network.node[5].core_layer 	data[5] 	161900
scalar abilene_cost_network.node[5].content_store 	p_hit[5] 	0.084134748092614
scalar abilene_cost_network.node[5].content_store 	hits[5] 	15240
scalar abilene_cost_network.node[5].content_store 	misses[5] 	165898
scalar abilene_cost_network.node[5].content_store 	decision_yes[5] 	86
scalar abilene_cost_network.node[5].content_store 	decision_no[5] 	161814
scalar abilene_cost_network.node[5].content_store 	decision_ratio[5] 	0.00053119209388511
scalar abilene_cost_network.node[5].content_store 	correction_factor[5] 	1.1822160874696e-316
scalar abilene_cost_network.node[5].content_store 	xi[5] 	1
scalar abilene_cost_network.node[6].core_layer 	interests[6] 	50776
scalar abilene_cost_network.node[6].core_layer 	data[6] 	45861
scalar abilene_cost_network.node[6].content_store 	p_hit[6] 	0.096797699700646
scalar abilene_cost_network.node[6].content_store 	hits[6] 	4915
scalar abilene_cost_network.node[6].content_store 	misses[6] 	45861
scalar abilene_cost_network.node[6].content_store 	decision_yes[6] 	0
scalar abilene_cost_network.node[6].content_store 	decision_no[6] 	45861
scalar abilene_cost_network.node[6].content_store 	decision_ratio[6] 	0
scalar abilene_cost_network.node[6].content_store 	correction_factor[6] 	1.1822081824193e-316
scalar abilene_cost_network.node[6].content_store 	xi[6] 	1
scalar abilene_cost_network.node[7].core_layer 	interests[7] 	124886
scalar abilene_cost_network.node[7].core_layer 	data[7] 	86725
scalar abilene_cost_network.node[7].content_store 	p_hit[7] 	0.30556667680925
scalar abilene_cost_network.node[7].content_store 	hits[7] 	38161
scalar abilene_cost_network.node[7].content_store 	misses[7] 	86725
scalar abilene_cost_network.node[7].content_store 	decision_yes[7] 	126
scalar abilene_cost_network.node[7].content_store 	decision_no[7] 	86599
scalar abilene_cost_network.node[7].content_store 	decision_ratio[7] 	0.0014528682617469
scalar abilene_cost_network.node[7].content_store 	correction_factor[7] 	1.1824089706977e-316
scalar abilene_cost_network.node[7].content_store 	xi[7] 	1
scalar abilene_cost_network.node[8].core_layer 	interests[8] 	62013
scalar abilene_cost_network.node[8].core_layer 	data[8] 	55759
scalar abilene_cost_network.node[8].content_store 	p_hit[8] 	0.10084982181156
scalar abilene_cost_network.node[8].content_store 	hits[8] 	6254
scalar abilene_cost_network.node[8].content_store 	misses[8] 	55759
scalar abilene_cost_network.node[8].content_store 	decision_yes[8] 	0
scalar abilene_cost_network.node[8].content_store 	decision_no[8] 	55759
scalar abilene_cost_network.node[8].content_store 	decision_ratio[8] 	0
scalar abilene_cost_network.node[8].content_store 	correction_factor[8] 	1.1826081779661e-316
scalar abilene_cost_network.node[8].content_store 	xi[8] 	1
scalar abilene_cost_network.node[9].core_layer 	interests[9] 	190517
scalar abilene_cost_network.node[9].core_layer 	data[9] 	168681
scalar abilene_cost_network.node[9].content_store 	p_hit[9] 	0.10764393728644
scalar abilene_cost_network.node[9].content_store 	hits[9] 	20508
scalar abilene_cost_network.node[9].content_store 	misses[9] 	170009
scalar abilene_cost_network.node[9].content_store 	decision_yes[9] 	70
scalar abilene_cost_network.node[9].content_store 	decision_no[9] 	168611
scalar abilene_cost_network.node[9].content_store 	decision_ratio[9] 	0.00041498449736485
scalar abilene_cost_network.node[9].content_store 	correction_factor[9] 	1.1828105472547e-316
scalar abilene_cost_network.node[9].content_store 	xi[9] 	1
scalar abilene_cost_network.node[10].core_layer 	interests[10] 	273064
scalar abilene_cost_network.node[10].core_layer 	data[10] 	264814
scalar abilene_cost_network.node[10].content_store 	p_hit[10] 	0.030216359534761
scalar abilene_cost_network.node[10].content_store 	hits[10] 	8251
scalar abilene_cost_network.node[10].content_store 	misses[10] 	264813
scalar abilene_cost_network.node[10].content_store 	decision_yes[10] 	125
scalar abilene_cost_network.node[10].content_store 	decision_no[10] 	264689
scalar abilene_cost_network.node[10].content_store 	decision_ratio[10] 	0.0004720294244262
scalar abilene_cost_network.node[10].content_store 	correction_factor[10] 	1.1837429479415e-316
scalar abilene_cost_network.node[10].content_store 	xi[10] 	1
scalar abilene_cost_network.node[11].core_layer 	interests[11] 	219027
scalar abilene_cost_network.node[11].core_layer 	repo_load[11] 	219027
scalar abilene_cost_network.node[11].core_layer 	data[11] 	0
scalar abilene_cost_network.node[11].content_store 	p_hit[11] 	0
scalar abilene_cost_network.node[11].content_store 	hits[11] 	0
scalar abilene_cost_network.node[11].content_store 	misses[11] 	219027
scalar abilene_cost_network.node[11].content_store 	decision_yes[11] 	0
scalar abilene_cost_network.node[11].content_store 	decision_no[11] 	219027
scalar abilene_cost_network.node[11].content_store 	decision_ratio[11] 	0
scalar abilene_cost_network.node[12].core_layer 	interests[12] 	75696
scalar abilene_cost_network.node[12].core_layer 	repo_load[12] 	75696
scalar abilene_cost_network.node[12].core_layer 	data[12] 	0
scalar abilene_cost_network.node[12].content_store 	p_hit[12] 	0
scalar abilene_cost_network.node[12].content_store 	hits[12] 	0
scalar abilene_cost_network.node[12].content_store 	misses[12] 	75696
scalar abilene_cost_network.node[12].content_store 	decision_yes[12] 	0
scalar abilene_cost_network.node[12].content_store 	decision_no[12] 	75696
scalar abilene_cost_network.node[12].content_store 	decision_ratio[12] 	0
scalar abilene_cost_network.node[13].core_layer 	interests[13] 	69628
scalar abilene_cost_network.node[13].core_layer 	repo_load[13] 	69628
scalar abilene_cost_network.node[13].core_layer 	data[13] 	0
scalar abilene_cost_network.node[13].content_store 	p_hit[13] 	0
scalar abilene_cost_network.node[13].content_store 	hits[13] 	0
scalar abilene_cost_network.node[13].content_store 	misses[13] 	69628
scalar abilene_cost_network.node[13].content_store 	decision_yes[13] 	0
scalar abilene_cost_network.node[13].content_store 	decision_no[13] 	69628
scalar abilene_cost_network.node[13].content_store 	decision_ratio[13] 	0
scalar abilene_cost_network.client[0] 	hdistance[0] 	3.0040975827611
scalar abilene_cost_network.client[0] 	downloads[0] 	179130
scalar abilene_cost_network.client[0] 	avg_time[0] 	0.011946859445
scalar abilene_cost_network.client[0] 	interests_sent[0] 	180662
scalar abilene_cost_network.client[5] 	hdistance[5] 	4.9061241003607
scalar abilene_cost_network.client[5] 	downloads[5] 	175487
scalar abilene_cost_network.client[5] 	avg_time[5] 	0.019800330884
scalar abilene_cost_network.client[5] 	interests_sent[5] 	179485
scalar abilene_cost_network.client[9] 	hdistance[9] 	2.8513452864484
scalar abilene_cost_network.client[9] 	downloads[9] 	178252
scalar abilene_cost_network.client[9] 	avg_time[9] 	0.010854838305
scalar abilene_cost_network.client[9] 	interests_sent[9] 	179580
