version 2
run General-2-20140708-17:21:44-17206
attr D costprobtailcons
attr F nrr
attr R lru
attr a 1
attr configname General
attr csize 1e3
attr ctlg 1e5
attr datetime 20140708-17:21:44
attr experiment General
attr inifile omnetpp.ini
attr iterationvars "$net=abilene_cost, $rep=2, $priceratiovalue=10, $weights=0.333_0.333_0.334, $lambda=100, $a=1, $ctlg=1e5, $F=nrr, $ttl=1000, $D=costprobtailcons, $xi=1, $R=lru, $csize=1e3, $pricebits=0, $window=60, $variance=0.05, $mytime=1800"
attr iterationvars2 "$net=abilene_cost, $rep=2, $priceratiovalue=10, $weights=0.333_0.333_0.334, $lambda=100, $a=1, $ctlg=1e5, $F=nrr, $ttl=1000, $D=costprobtailcons, $xi=1, $R=lru, $csize=1e3, $pricebits=0, $window=60, $variance=0.05, $mytime=1800, $repetition=0"
attr lambda 100
attr measurement "$net=abilene_cost, $rep=2, $priceratiovalue=10, $weights=0.333_0.333_0.334, $lambda=100, $a=1, $ctlg=1e5, $F=nrr, $ttl=1000, $D=costprobtailcons, $xi=1, $R=lru, $csize=1e3, $pricebits=0, $window=60, $variance=0.05, $mytime=1800"
attr mytime 1800
attr net abilene_cost
attr network "networks.${net=abilene_cost, geant_cost}_network"
attr pricebits 0
attr priceratiovalue 10
attr processid 17206
attr rep 2
attr repetition 0
attr replication #0
attr resultdir results
attr runnumber 2
attr seedset 2
attr ttl 1000
attr variance 0.05
attr weights 0.333_0.333_0.334
attr window 60
attr xi 1

scalar . 	a 	1
scalar . 	csize 	1e3
scalar . 	ctlg 	1e5
scalar . 	lambda 	100
scalar . 	mytime 	1800
scalar . 	pricebits 	0
scalar . 	priceratiovalue 	10
scalar . 	rep 	2
scalar . 	ttl 	1000
scalar . 	variance 	0.05
scalar . 	window 	60
scalar . 	xi 	1
scalar abilene_cost_network.content_distribution 	repo-0 	11
scalar abilene_cost_network.content_distribution 	repo-1 	12
scalar abilene_cost_network.content_distribution 	repo-2 	13
scalar abilene_cost_network.content_distribution 	client-0 	5
scalar abilene_cost_network.content_distribution 	client-1 	0
scalar abilene_cost_network.content_distribution 	client-2 	9
scalar abilene_cost_network.content_distribution 	repo-0_card 	33329
scalar abilene_cost_network.content_distribution 	repo-1_card 	33051
scalar abilene_cost_network.content_distribution 	repo-2_card 	33620
scalar abilene_cost_network.statistics 	repo_popularity[0] 	0.40477944494875
scalar abilene_cost_network.statistics 	repo_popularity[1] 	0.29142457969466
scalar abilene_cost_network.statistics 	repo_popularity[2] 	0.30379597535658
scalar abilene_cost_network.statistics 	stabilization_time 	65
scalar abilene_cost_network.node[1].face$o[4].channel 	price[1] 	0
scalar abilene_cost_network.node[1].face$o[4].channel 	represented_price[1] 	0
scalar abilene_cost_network.node[7].face$o[4].channel 	price[7] 	0
scalar abilene_cost_network.node[7].face$o[4].channel 	represented_price[7] 	0
scalar abilene_cost_network.node[10].face$o[4].channel 	price[10] 	0
scalar abilene_cost_network.node[10].face$o[4].channel 	represented_price[10] 	0
scalar abilene_cost_network.node[11].face$o[1].channel 	price[11] 	0
scalar abilene_cost_network.node[11].face$o[1].channel 	represented_price[11] 	0
scalar abilene_cost_network.node[12].face$o[1].channel 	price[12] 	1
scalar abilene_cost_network.node[12].face$o[1].channel 	represented_price[12] 	1
scalar abilene_cost_network.node[13].face$o[1].channel 	price[13] 	10
scalar abilene_cost_network.node[13].face$o[1].channel 	represented_price[13] 	10
scalar abilene_cost_network.statistics 	p_hit 	0.085200289413388
scalar abilene_cost_network.statistics 	interests 	147984.07142857
scalar abilene_cost_network.statistics 	data 	109421.28571429
scalar abilene_cost_network.statistics 	hdistance 	3.553147475847
scalar abilene_cost_network.statistics 	avg_time 	0.01410562885
scalar abilene_cost_network.statistics 	downloads 	532837
scalar abilene_cost_network.statistics 	total_cost 	750528
scalar abilene_cost_network.statistics 	total_replicas 	100000
scalar abilene_cost_network.statistics 	inner_hit 	0.33128893076119
scalar abilene_cost_network.statistics 	interests_sent 	539883
scalar abilene_cost_network.node[0].core_layer 	interests[0] 	190378
scalar abilene_cost_network.node[0].core_layer 	data[0] 	165669
scalar abilene_cost_network.node[0].core_layer 	repo_int[0] 	356314
scalar abilene_cost_network.node[0].content_store 	p_hit[0] 	0.12133754950677
scalar abilene_cost_network.node[0].content_store 	hits[0] 	23100
scalar abilene_cost_network.node[0].content_store 	misses[0] 	167278
scalar abilene_cost_network.node[0].content_store 	decision_yes[0] 	125
scalar abilene_cost_network.node[0].content_store 	decision_no[0] 	165544
scalar abilene_cost_network.node[0].content_store 	decision_ratio[0] 	0.0007545165359844
scalar abilene_cost_network.node[0].content_store 	correction_factor[0] 	1.3540307754573e-316
scalar abilene_cost_network.node[0].content_store 	xi[0] 	1
scalar abilene_cost_network.node[1].core_layer 	interests[1] 	214612
scalar abilene_cost_network.node[1].core_layer 	data[1] 	183359
scalar abilene_cost_network.node[1].content_store 	p_hit[1] 	0.14562559409539
scalar abilene_cost_network.node[1].content_store 	hits[1] 	31253
scalar abilene_cost_network.node[1].content_store 	misses[1] 	183359
scalar abilene_cost_network.node[1].content_store 	decision_yes[1] 	73
scalar abilene_cost_network.node[1].content_store 	decision_no[1] 	183286
scalar abilene_cost_network.node[1].content_store 	decision_ratio[1] 	0.00039812608053054
scalar abilene_cost_network.node[1].content_store 	correction_factor[1] 	1.3541612087878e-316
scalar abilene_cost_network.node[1].content_store 	xi[1] 	1
scalar abilene_cost_network.node[2].core_layer 	interests[2] 	158427
scalar abilene_cost_network.node[2].core_layer 	data[2] 	146220
scalar abilene_cost_network.node[2].content_store 	p_hit[2] 	0.077057572257254
scalar abilene_cost_network.node[2].content_store 	hits[2] 	12208
scalar abilene_cost_network.node[2].content_store 	misses[2] 	146219
scalar abilene_cost_network.node[2].content_store 	decision_yes[2] 	124
scalar abilene_cost_network.node[2].content_store 	decision_no[2] 	146096
scalar abilene_cost_network.node[2].content_store 	decision_ratio[2] 	0.00084803720421283
scalar abilene_cost_network.node[2].content_store 	correction_factor[2] 	1.3544481621149e-316
scalar abilene_cost_network.node[2].content_store 	xi[2] 	1
scalar abilene_cost_network.node[3].core_layer 	interests[3] 	148215
scalar abilene_cost_network.node[3].core_layer 	data[3] 	143833
scalar abilene_cost_network.node[3].content_store 	p_hit[3] 	0.029571905677563
scalar abilene_cost_network.node[3].content_store 	hits[3] 	4383
scalar abilene_cost_network.node[3].content_store 	misses[3] 	143832
scalar abilene_cost_network.node[3].content_store 	decision_yes[3] 	0
scalar abilene_cost_network.node[3].content_store 	decision_no[3] 	143833
scalar abilene_cost_network.node[3].content_store 	decision_ratio[3] 	0
scalar abilene_cost_network.node[3].content_store 	correction_factor[3] 	1.3548465766517e-316
scalar abilene_cost_network.node[3].content_store 	xi[3] 	1
scalar abilene_cost_network.node[4].core_layer 	interests[4] 	113761
scalar abilene_cost_network.node[4].core_layer 	data[4] 	112325
scalar abilene_cost_network.node[4].content_store 	p_hit[4] 	0.012631745501534
scalar abilene_cost_network.node[4].content_store 	hits[4] 	1437
scalar abilene_cost_network.node[4].content_store 	misses[4] 	112324
scalar abilene_cost_network.node[4].content_store 	decision_yes[4] 	0
scalar abilene_cost_network.node[4].content_store 	decision_no[4] 	112325
scalar abilene_cost_network.node[4].content_store 	decision_ratio[4] 	0
scalar abilene_cost_network.node[4].content_store 	correction_factor[4] 	1.3550426219e-316
scalar abilene_cost_network.node[4].content_store 	xi[4] 	1
scalar abilene_cost_network.node[5].core_layer 	interests[5] 	182274
scalar abilene_cost_network.node[5].core_layer 	data[5] 	163278
scalar abilene_cost_network.node[5].content_store 	p_hit[5] 	0.078360051351262
scalar abilene_cost_network.node[5].content_store 	hits[5] 	14283
scalar abilene_cost_network.node[5].content_store 	misses[5] 	167991
scalar abilene_cost_network.node[5].content_store 	decision_yes[5] 	78
scalar abilene_cost_network.node[5].content_store 	decision_no[5] 	163200
scalar abilene_cost_network.node[5].content_store 	decision_ratio[5] 	0.0004777128578253
scalar abilene_cost_network.node[5].content_store 	correction_factor[5] 	1.3550426219e-316
scalar abilene_cost_network.node[5].content_store 	xi[5] 	1
scalar abilene_cost_network.node[6].core_layer 	interests[6] 	58711
scalar abilene_cost_network.node[6].core_layer 	data[6] 	49184
scalar abilene_cost_network.node[6].content_store 	p_hit[6] 	0.16226942140314
scalar abilene_cost_network.node[6].content_store 	hits[6] 	9527
scalar abilene_cost_network.node[6].content_store 	misses[6] 	49184
scalar abilene_cost_network.node[6].content_store 	decision_yes[6] 	0
scalar abilene_cost_network.node[6].content_store 	decision_no[6] 	49184
scalar abilene_cost_network.node[6].content_store 	decision_ratio[6] 	0
scalar abilene_cost_network.node[6].content_store 	correction_factor[6] 	1.3550347168496e-316
scalar abilene_cost_network.node[6].content_store 	xi[6] 	1
scalar abilene_cost_network.node[7].core_layer 	interests[7] 	120186
scalar abilene_cost_network.node[7].core_layer 	data[7] 	93081
scalar abilene_cost_network.node[7].content_store 	p_hit[7] 	0.22547551295492
scalar abilene_cost_network.node[7].content_store 	hits[7] 	27099
scalar abilene_cost_network.node[7].content_store 	misses[7] 	93087
scalar abilene_cost_network.node[7].content_store 	decision_yes[7] 	136
scalar abilene_cost_network.node[7].content_store 	decision_no[7] 	92945
scalar abilene_cost_network.node[7].content_store 	decision_ratio[7] 	0.0014610930265038
scalar abilene_cost_network.node[7].content_store 	correction_factor[7] 	1.3550347168496e-316
scalar abilene_cost_network.node[7].content_store 	xi[7] 	1
scalar abilene_cost_network.node[8].core_layer 	interests[8] 	59511
scalar abilene_cost_network.node[8].core_layer 	data[8] 	52723
scalar abilene_cost_network.node[8].content_store 	p_hit[8] 	0.11406294634605
scalar abilene_cost_network.node[8].content_store 	hits[8] 	6788
scalar abilene_cost_network.node[8].content_store 	misses[8] 	52723
scalar abilene_cost_network.node[8].content_store 	decision_yes[8] 	0
scalar abilene_cost_network.node[8].content_store 	decision_no[8] 	52723
scalar abilene_cost_network.node[8].content_store 	decision_ratio[8] 	0
scalar abilene_cost_network.node[8].content_store 	correction_factor[8] 	1.3556323386548e-316
scalar abilene_cost_network.node[8].content_store 	xi[8] 	1
scalar abilene_cost_network.node[9].core_layer 	interests[9] 	197431
scalar abilene_cost_network.node[9].core_layer 	data[9] 	160724
scalar abilene_cost_network.node[9].content_store 	p_hit[9] 	0.18225607933911
scalar abilene_cost_network.node[9].content_store 	hits[9] 	35983
scalar abilene_cost_network.node[9].content_store 	misses[9] 	161448
scalar abilene_cost_network.node[9].content_store 	decision_yes[9] 	79
scalar abilene_cost_network.node[9].content_store 	decision_no[9] 	160645
scalar abilene_cost_network.node[9].content_store 	decision_ratio[9] 	0.00049152584554889
scalar abilene_cost_network.node[9].content_store 	correction_factor[9] 	1.3544592291854e-316
scalar abilene_cost_network.node[9].content_store 	xi[9] 	1
scalar abilene_cost_network.node[10].core_layer 	interests[10] 	271957
scalar abilene_cost_network.node[10].core_layer 	data[10] 	261502
scalar abilene_cost_network.node[10].content_store 	p_hit[10] 	0.038443577477322
scalar abilene_cost_network.node[10].content_store 	hits[10] 	10455
scalar abilene_cost_network.node[10].content_store 	misses[10] 	261502
scalar abilene_cost_network.node[10].content_store 	decision_yes[10] 	95
scalar abilene_cost_network.node[10].content_store 	decision_no[10] 	261407
scalar abilene_cost_network.node[10].content_store 	decision_ratio[10] 	0.0003632859404517
scalar abilene_cost_network.node[10].content_store 	correction_factor[10] 	1.3560307531917e-316
scalar abilene_cost_network.node[10].content_store 	xi[10] 	1
scalar abilene_cost_network.node[11].core_layer 	interests[11] 	212818
scalar abilene_cost_network.node[11].core_layer 	repo_load[11] 	212818
scalar abilene_cost_network.node[11].core_layer 	data[11] 	0
scalar abilene_cost_network.node[11].content_store 	p_hit[11] 	0
scalar abilene_cost_network.node[11].content_store 	hits[11] 	0
scalar abilene_cost_network.node[11].content_store 	misses[11] 	212818
scalar abilene_cost_network.node[11].content_store 	decision_yes[11] 	0
scalar abilene_cost_network.node[11].content_store 	decision_no[11] 	212818
scalar abilene_cost_network.node[11].content_store 	decision_ratio[11] 	0
scalar abilene_cost_network.node[12].core_layer 	interests[12] 	76048
scalar abilene_cost_network.node[12].core_layer 	repo_load[12] 	76048
scalar abilene_cost_network.node[12].core_layer 	data[12] 	0
scalar abilene_cost_network.node[12].content_store 	p_hit[12] 	0
scalar abilene_cost_network.node[12].content_store 	hits[12] 	0
scalar abilene_cost_network.node[12].content_store 	misses[12] 	76048
scalar abilene_cost_network.node[12].content_store 	decision_yes[12] 	0
scalar abilene_cost_network.node[12].content_store 	decision_no[12] 	76048
scalar abilene_cost_network.node[12].content_store 	decision_ratio[12] 	0
scalar abilene_cost_network.node[13].core_layer 	interests[13] 	67448
scalar abilene_cost_network.node[13].core_layer 	repo_load[13] 	67448
scalar abilene_cost_network.node[13].core_layer 	data[13] 	0
scalar abilene_cost_network.node[13].content_store 	p_hit[13] 	0
scalar abilene_cost_network.node[13].content_store 	hits[13] 	0
scalar abilene_cost_network.node[13].content_store 	misses[13] 	67448
scalar abilene_cost_network.node[13].content_store 	decision_yes[13] 	0
scalar abilene_cost_network.node[13].content_store 	decision_no[13] 	67448
scalar abilene_cost_network.node[13].content_store 	decision_ratio[13] 	0
scalar abilene_cost_network.client[0] 	hdistance[0] 	3.0088729554111
scalar abilene_cost_network.client[0] 	downloads[0] 	178520
scalar abilene_cost_network.client[0] 	avg_time[0] 	0.012208596579
scalar abilene_cost_network.client[0] 	interests_sent[0] 	180129
scalar abilene_cost_network.client[5] 	hdistance[5] 	4.9083638730006
scalar abilene_cost_network.client[5] 	downloads[5] 	175182
scalar abilene_cost_network.client[5] 	avg_time[5] 	0.019971594029
scalar abilene_cost_network.client[5] 	interests_sent[5] 	179895
scalar abilene_cost_network.client[9] 	hdistance[9] 	2.7422055991291
scalar abilene_cost_network.client[9] 	downloads[9] 	179135
scalar abilene_cost_network.client[9] 	avg_time[9] 	0.010136695943
scalar abilene_cost_network.client[9] 	interests_sent[9] 	179859
