version 2
run General-38-20140708-17:26:02-17244
attr D costprobtailcons
attr F nrr
attr R lru
attr a 1
attr configname General
attr csize 1e3
attr ctlg 1e5
attr datetime 20140708-17:26:02
attr experiment General
attr inifile omnetpp.ini
attr iterationvars "$net=abilene_cost, $rep=20, $priceratiovalue=10, $weights=0.333_0.333_0.334, $lambda=100, $a=1, $ctlg=1e5, $F=nrr, $ttl=1000, $D=costprobtailcons, $xi=1, $R=lru, $csize=1e3, $pricebits=0, $window=60, $variance=0.05, $mytime=1800"
attr iterationvars2 "$net=abilene_cost, $rep=20, $priceratiovalue=10, $weights=0.333_0.333_0.334, $lambda=100, $a=1, $ctlg=1e5, $F=nrr, $ttl=1000, $D=costprobtailcons, $xi=1, $R=lru, $csize=1e3, $pricebits=0, $window=60, $variance=0.05, $mytime=1800, $repetition=0"
attr lambda 100
attr measurement "$net=abilene_cost, $rep=20, $priceratiovalue=10, $weights=0.333_0.333_0.334, $lambda=100, $a=1, $ctlg=1e5, $F=nrr, $ttl=1000, $D=costprobtailcons, $xi=1, $R=lru, $csize=1e3, $pricebits=0, $window=60, $variance=0.05, $mytime=1800"
attr mytime 1800
attr net abilene_cost
attr network "networks.${net=abilene_cost, geant_cost}_network"
attr pricebits 0
attr priceratiovalue 10
attr processid 17244
attr rep 20
attr repetition 0
attr replication #0
attr resultdir results
attr runnumber 38
attr seedset 20
attr ttl 1000
attr variance 0.05
attr weights 0.333_0.333_0.334
attr window 60
attr xi 1

scalar . 	a 	1
scalar . 	csize 	1e3
scalar . 	ctlg 	1e5
scalar . 	lambda 	100
scalar . 	mytime 	1800
scalar . 	pricebits 	0
scalar . 	priceratiovalue 	10
scalar . 	rep 	20
scalar . 	ttl 	1000
scalar . 	variance 	0.05
scalar . 	window 	60
scalar . 	xi 	1
scalar abilene_cost_network.content_distribution 	repo-0 	11
scalar abilene_cost_network.content_distribution 	repo-1 	12
scalar abilene_cost_network.content_distribution 	repo-2 	13
scalar abilene_cost_network.content_distribution 	client-0 	5
scalar abilene_cost_network.content_distribution 	client-1 	0
scalar abilene_cost_network.content_distribution 	client-2 	9
scalar abilene_cost_network.content_distribution 	repo-0_card 	33321
scalar abilene_cost_network.content_distribution 	repo-1_card 	33296
scalar abilene_cost_network.content_distribution 	repo-2_card 	33383
scalar abilene_cost_network.statistics 	repo_popularity[0] 	0.30078651597297
scalar abilene_cost_network.statistics 	repo_popularity[1] 	0.29276091736323
scalar abilene_cost_network.statistics 	repo_popularity[2] 	0.4064525666638
scalar abilene_cost_network.statistics 	stabilization_time 	64.4
scalar abilene_cost_network.node[1].face$o[4].channel 	price[1] 	0
scalar abilene_cost_network.node[1].face$o[4].channel 	represented_price[1] 	0
scalar abilene_cost_network.node[7].face$o[4].channel 	price[7] 	0
scalar abilene_cost_network.node[7].face$o[4].channel 	represented_price[7] 	0
scalar abilene_cost_network.node[10].face$o[4].channel 	price[10] 	0
scalar abilene_cost_network.node[10].face$o[4].channel 	represented_price[10] 	0
scalar abilene_cost_network.node[11].face$o[1].channel 	price[11] 	0
scalar abilene_cost_network.node[11].face$o[1].channel 	represented_price[11] 	0
scalar abilene_cost_network.node[12].face$o[1].channel 	price[12] 	1
scalar abilene_cost_network.node[12].face$o[1].channel 	represented_price[12] 	1
scalar abilene_cost_network.node[13].face$o[1].channel 	price[13] 	10
scalar abilene_cost_network.node[13].face$o[1].channel 	represented_price[13] 	10
scalar abilene_cost_network.statistics 	p_hit 	0.11334725470792
scalar abilene_cost_network.statistics 	interests 	143561.35714286
scalar abilene_cost_network.statistics 	data 	104888.78571429
scalar abilene_cost_network.statistics 	hdistance 	3.3279402687296
scalar abilene_cost_network.statistics 	avg_time 	0.014254577366
scalar abilene_cost_network.statistics 	downloads 	534931
scalar abilene_cost_network.statistics 	total_cost 	742664
scalar abilene_cost_network.statistics 	total_replicas 	100000
scalar abilene_cost_network.statistics 	inner_hit 	0.42587174794506
scalar abilene_cost_network.statistics 	interests_sent 	541411
scalar abilene_cost_network.node[0].core_layer 	interests[0] 	190540
scalar abilene_cost_network.node[0].core_layer 	data[0] 	163513
scalar abilene_cost_network.node[0].core_layer 	repo_int[0] 	307119
scalar abilene_cost_network.node[0].content_store 	p_hit[0] 	0.13279101500997
scalar abilene_cost_network.node[0].content_store 	hits[0] 	25302
scalar abilene_cost_network.node[0].content_store 	misses[0] 	165238
scalar abilene_cost_network.node[0].content_store 	decision_yes[0] 	120
scalar abilene_cost_network.node[0].content_store 	decision_no[0] 	163393
scalar abilene_cost_network.node[0].content_store 	decision_ratio[0] 	0.0007338866022885
scalar abilene_cost_network.node[0].content_store 	correction_factor[0] 	1.8469802281914e-316
scalar abilene_cost_network.node[0].content_store 	xi[0] 	1
scalar abilene_cost_network.node[1].core_layer 	interests[1] 	224424
scalar abilene_cost_network.node[1].core_layer 	data[1] 	174296
scalar abilene_cost_network.node[1].content_store 	p_hit[1] 	0.22336292018679
scalar abilene_cost_network.node[1].content_store 	hits[1] 	50128
scalar abilene_cost_network.node[1].content_store 	misses[1] 	174296
scalar abilene_cost_network.node[1].content_store 	decision_yes[1] 	60
scalar abilene_cost_network.node[1].content_store 	decision_no[1] 	174236
scalar abilene_cost_network.node[1].content_store 	decision_ratio[1] 	0.00034424197916189
scalar abilene_cost_network.node[1].content_store 	correction_factor[1] 	1.8469723231411e-316
scalar abilene_cost_network.node[1].content_store 	xi[1] 	1
scalar abilene_cost_network.node[2].core_layer 	interests[2] 	158594
scalar abilene_cost_network.node[2].core_layer 	data[2] 	147230
scalar abilene_cost_network.node[2].content_store 	p_hit[2] 	0.071648359963176
scalar abilene_cost_network.node[2].content_store 	hits[2] 	11363
scalar abilene_cost_network.node[2].content_store 	misses[2] 	147231
scalar abilene_cost_network.node[2].content_store 	decision_yes[2] 	157
scalar abilene_cost_network.node[2].content_store 	decision_no[2] 	147073
scalar abilene_cost_network.node[2].content_store 	decision_ratio[2] 	0.0010663587584052
scalar abilene_cost_network.node[2].content_store 	correction_factor[2] 	1.8469375409196e-316
scalar abilene_cost_network.node[2].content_store 	xi[2] 	1
scalar abilene_cost_network.node[3].core_layer 	interests[3] 	148350
scalar abilene_cost_network.node[3].core_layer 	data[3] 	145902
scalar abilene_cost_network.node[3].content_store 	p_hit[3] 	0.01649477586788
scalar abilene_cost_network.node[3].content_store 	hits[3] 	2447
scalar abilene_cost_network.node[3].content_store 	misses[3] 	145903
scalar abilene_cost_network.node[3].content_store 	decision_yes[3] 	0
scalar abilene_cost_network.node[3].content_store 	decision_no[3] 	145902
scalar abilene_cost_network.node[3].content_store 	decision_ratio[3] 	0
scalar abilene_cost_network.node[3].content_store 	correction_factor[3] 	1.8468458423358e-316
scalar abilene_cost_network.node[3].content_store 	xi[3] 	1
scalar abilene_cost_network.node[4].core_layer 	interests[4] 	104611
scalar abilene_cost_network.node[4].core_layer 	data[4] 	103301
scalar abilene_cost_network.node[4].content_store 	p_hit[4] 	0.012513024442936
scalar abilene_cost_network.node[4].content_store 	hits[4] 	1309
scalar abilene_cost_network.node[4].content_store 	misses[4] 	103302
scalar abilene_cost_network.node[4].content_store 	decision_yes[4] 	0
scalar abilene_cost_network.node[4].content_store 	decision_no[4] 	103301
scalar abilene_cost_network.node[4].content_store 	decision_ratio[4] 	0
scalar abilene_cost_network.node[4].content_store 	correction_factor[4] 	1.8476205372685e-316
scalar abilene_cost_network.node[4].content_store 	xi[4] 	1
scalar abilene_cost_network.node[5].core_layer 	interests[5] 	181924
scalar abilene_cost_network.node[5].core_layer 	data[5] 	155378
scalar abilene_cost_network.node[5].content_store 	p_hit[5] 	0.1242276994789
scalar abilene_cost_network.node[5].content_store 	hits[5] 	22600
scalar abilene_cost_network.node[5].content_store 	misses[5] 	159324
scalar abilene_cost_network.node[5].content_store 	decision_yes[5] 	54
scalar abilene_cost_network.node[5].content_store 	decision_no[5] 	155324
scalar abilene_cost_network.node[5].content_store 	decision_ratio[5] 	0.00034753954871346
scalar abilene_cost_network.node[5].content_store 	correction_factor[5] 	1.8480110467549e-316
scalar abilene_cost_network.node[5].content_store 	xi[5] 	1
scalar abilene_cost_network.node[6].core_layer 	interests[6] 	57319
scalar abilene_cost_network.node[6].core_layer 	data[6] 	50810
scalar abilene_cost_network.node[6].content_store 	p_hit[6] 	0.1135400129102
scalar abilene_cost_network.node[6].content_store 	hits[6] 	6508
scalar abilene_cost_network.node[6].content_store 	misses[6] 	50811
scalar abilene_cost_network.node[6].content_store 	decision_yes[6] 	0
scalar abilene_cost_network.node[6].content_store 	decision_no[6] 	50810
scalar abilene_cost_network.node[6].content_store 	decision_ratio[6] 	0
scalar abilene_cost_network.node[6].content_store 	correction_factor[6] 	1.8480031417046e-316
scalar abilene_cost_network.node[6].content_store 	xi[6] 	1
scalar abilene_cost_network.node[7].core_layer 	interests[7] 	140466
scalar abilene_cost_network.node[7].core_layer 	data[7] 	98875
scalar abilene_cost_network.node[7].content_store 	p_hit[7] 	0.29608588555238
scalar abilene_cost_network.node[7].content_store 	hits[7] 	41590
scalar abilene_cost_network.node[7].content_store 	misses[7] 	98876
scalar abilene_cost_network.node[7].content_store 	decision_yes[7] 	70
scalar abilene_cost_network.node[7].content_store 	decision_no[7] 	98805
scalar abilene_cost_network.node[7].content_store 	decision_ratio[7] 	0.00070796460176991
scalar abilene_cost_network.node[7].content_store 	correction_factor[7] 	1.8482039299831e-316
scalar abilene_cost_network.node[7].content_store 	xi[7] 	1
scalar abilene_cost_network.node[8].core_layer 	interests[8] 	73093
scalar abilene_cost_network.node[8].core_layer 	data[8] 	66817
scalar abilene_cost_network.node[8].content_store 	p_hit[8] 	0.08586321535578
scalar abilene_cost_network.node[8].content_store 	hits[8] 	6276
scalar abilene_cost_network.node[8].content_store 	misses[8] 	66817
scalar abilene_cost_network.node[8].content_store 	decision_yes[8] 	0
scalar abilene_cost_network.node[8].content_store 	decision_no[8] 	66817
scalar abilene_cost_network.node[8].content_store 	decision_ratio[8] 	0
scalar abilene_cost_network.node[8].content_store 	correction_factor[8] 	1.8484031372515e-316
scalar abilene_cost_network.node[8].content_store 	xi[8] 	1
scalar abilene_cost_network.node[9].core_layer 	interests[9] 	198189
scalar abilene_cost_network.node[9].core_layer 	data[9] 	154710
scalar abilene_cost_network.node[9].content_store 	p_hit[9] 	0.21529953731035
scalar abilene_cost_network.node[9].content_store 	hits[9] 	42670
scalar abilene_cost_network.node[9].content_store 	misses[9] 	155519
scalar abilene_cost_network.node[9].content_store 	decision_yes[9] 	101
scalar abilene_cost_network.node[9].content_store 	decision_no[9] 	154609
scalar abilene_cost_network.node[9].content_store 	decision_ratio[9] 	0.00065283433520781
scalar abilene_cost_network.node[9].content_store 	correction_factor[9] 	1.84860550654e-316
scalar abilene_cost_network.node[9].content_store 	xi[9] 	1
scalar abilene_cost_network.node[10].core_layer 	interests[10] 	225230
scalar abilene_cost_network.node[10].core_layer 	data[10] 	207611
scalar abilene_cost_network.node[10].content_store 	p_hit[10] 	0.078226701593926
scalar abilene_cost_network.node[10].content_store 	hits[10] 	17619
scalar abilene_cost_network.node[10].content_store 	misses[10] 	207611
scalar abilene_cost_network.node[10].content_store 	decision_yes[10] 	104
scalar abilene_cost_network.node[10].content_store 	decision_no[10] 	207507
scalar abilene_cost_network.node[10].content_store 	decision_ratio[10] 	0.00050093684824022
scalar abilene_cost_network.node[10].content_store 	correction_factor[10] 	1.8495379072268e-316
scalar abilene_cost_network.node[10].content_store 	xi[10] 	1
scalar abilene_cost_network.node[11].core_layer 	interests[11] 	161911
scalar abilene_cost_network.node[11].core_layer 	repo_load[11] 	161911
scalar abilene_cost_network.node[11].core_layer 	data[11] 	0
scalar abilene_cost_network.node[11].content_store 	p_hit[11] 	0
scalar abilene_cost_network.node[11].content_store 	hits[11] 	0
scalar abilene_cost_network.node[11].content_store 	misses[11] 	161911
scalar abilene_cost_network.node[11].content_store 	decision_yes[11] 	0
scalar abilene_cost_network.node[11].content_store 	decision_no[11] 	161911
scalar abilene_cost_network.node[11].content_store 	decision_ratio[11] 	0
scalar abilene_cost_network.node[12].core_layer 	interests[12] 	78824
scalar abilene_cost_network.node[12].core_layer 	repo_load[12] 	78824
scalar abilene_cost_network.node[12].core_layer 	data[12] 	0
scalar abilene_cost_network.node[12].content_store 	p_hit[12] 	0
scalar abilene_cost_network.node[12].content_store 	hits[12] 	0
scalar abilene_cost_network.node[12].content_store 	misses[12] 	78824
scalar abilene_cost_network.node[12].content_store 	decision_yes[12] 	0
scalar abilene_cost_network.node[12].content_store 	decision_no[12] 	78824
scalar abilene_cost_network.node[12].content_store 	decision_ratio[12] 	0
scalar abilene_cost_network.node[13].core_layer 	interests[13] 	66384
scalar abilene_cost_network.node[13].core_layer 	repo_load[13] 	66384
scalar abilene_cost_network.node[13].core_layer 	data[13] 	0
scalar abilene_cost_network.node[13].content_store 	p_hit[13] 	0
scalar abilene_cost_network.node[13].content_store 	hits[13] 	0
scalar abilene_cost_network.node[13].content_store 	misses[13] 	66384
scalar abilene_cost_network.node[13].content_store 	decision_yes[13] 	0
scalar abilene_cost_network.node[13].content_store 	decision_no[13] 	66384
scalar abilene_cost_network.node[13].content_store 	decision_ratio[13] 	0
scalar abilene_cost_network.client[0] 	hdistance[0] 	2.9057175842899
scalar abilene_cost_network.client[0] 	downloads[0] 	178432
scalar abilene_cost_network.client[0] 	avg_time[0] 	0.012981575344
scalar abilene_cost_network.client[0] 	interests_sent[0] 	180157
scalar abilene_cost_network.client[5] 	hdistance[5] 	4.5213367667707
scalar abilene_cost_network.client[5] 	downloads[5] 	175917
scalar abilene_cost_network.client[5] 	avg_time[5] 	0.018811848349
scalar abilene_cost_network.client[5] 	interests_sent[5] 	179863
scalar abilene_cost_network.client[9] 	hdistance[9] 	2.5567664551284
scalar abilene_cost_network.client[9] 	downloads[9] 	180582
scalar abilene_cost_network.client[9] 	avg_time[9] 	0.010970308406
scalar abilene_cost_network.client[9] 	interests_sent[9] 	181391
