version 2
run General-1822-20140502-04:35:51-10754
attr D costprob0.005
attr F nrr
attr R lru
attr a 1
attr configname General
attr csize 1e3
attr ctlg 1e5
attr datetime 20140502-04:35:51
attr experiment General
attr inifile omnetpp.ini
attr iterationvars "$net=three_caches_scenario_3_links, $rep=4, $priceratiovalue=1, $weights=0.7_0.15_0.15, $a=1, $ctlg=1e5, $F=nrr, $ttl=1000, $D=costprob0.005, $xi=1, $R=lru, $csize=1e3"
attr iterationvars2 "$net=three_caches_scenario_3_links, $rep=4, $priceratiovalue=1, $weights=0.7_0.15_0.15, $a=1, $ctlg=1e5, $F=nrr, $ttl=1000, $D=costprob0.005, $xi=1, $R=lru, $csize=1e3, $repetition=0"
attr measurement "$net=three_caches_scenario_3_links, $rep=4, $priceratiovalue=1, $weights=0.7_0.15_0.15, $a=1, $ctlg=1e5, $F=nrr, $ttl=1000, $D=costprob0.005, $xi=1, $R=lru, $csize=1e3"
attr net three_caches_scenario_3_links
attr network networks.${net=three_caches_scenario_3_links}_network
attr priceratiovalue 1
attr processid 10754
attr rep 4
attr repetition 0
attr replication #0
attr resultdir results
attr runnumber 1822
attr seedset 4
attr ttl 1000
attr weights 0.7_0.15_0.15
attr xi 1

scalar . 	a 	1
scalar . 	csize 	1e3
scalar . 	ctlg 	1e5
scalar . 	priceratiovalue 	1
scalar . 	rep 	4
scalar . 	ttl 	1000
scalar . 	xi 	1
scalar three_caches_scenario_3_links_network.content_distribution 	repo-0 	4
scalar three_caches_scenario_3_links_network.content_distribution 	repo-1 	5
scalar three_caches_scenario_3_links_network.content_distribution 	repo-2 	6
scalar three_caches_scenario_3_links_network.content_distribution 	client-0 	0
scalar three_caches_scenario_3_links_network.content_distribution 	repo-0_card 	70058
scalar three_caches_scenario_3_links_network.content_distribution 	repo-1_card 	14957
scalar three_caches_scenario_3_links_network.content_distribution 	repo-2_card 	14985
scalar three_caches_scenario_3_links_network.statistics 	p_hit 	0.044292579171262
scalar three_caches_scenario_3_links_network.statistics 	interests 	72537.142857143
scalar three_caches_scenario_3_links_network.statistics 	data 	46838.428571429
scalar three_caches_scenario_3_links_network.statistics 	hdistance 	1.9234758826178
scalar three_caches_scenario_3_links_network.statistics 	avg_time 	0
scalar three_caches_scenario_3_links_network.statistics 	downloads 	179891
scalar three_caches_scenario_3_links_network.statistics 	total_cost 	18147
scalar three_caches_scenario_3_links_network.statistics 	total_replicas 	100000
scalar three_caches_scenario_3_links_network.statistics 	interests_sent 	179891
scalar three_caches_scenario_3_links_network.node[0].core_layer 	interests[0] 	179891
scalar three_caches_scenario_3_links_network.node[0].core_layer 	data[0] 	170468
scalar three_caches_scenario_3_links_network.node[0].core_layer 	repo_int[0] 	157401
scalar three_caches_scenario_3_links_network.node[0].content_store 	p_hit[0] 	0.052381720041581
scalar three_caches_scenario_3_links_network.node[0].content_store 	hits[0] 	9423
scalar three_caches_scenario_3_links_network.node[0].content_store 	misses[0] 	170468
scalar three_caches_scenario_3_links_network.node[0].content_store 	decision_yes[0] 	293
scalar three_caches_scenario_3_links_network.node[0].content_store 	decision_no[0] 	170175
scalar three_caches_scenario_3_links_network.node[1].core_layer 	interests[1] 	139254
scalar three_caches_scenario_3_links_network.node[1].core_layer 	data[1] 	139254
scalar three_caches_scenario_3_links_network.node[1].content_store 	p_hit[1] 	0
scalar three_caches_scenario_3_links_network.node[1].content_store 	hits[1] 	0
scalar three_caches_scenario_3_links_network.node[1].content_store 	misses[1] 	139254
scalar three_caches_scenario_3_links_network.node[1].content_store 	decision_yes[1] 	0
scalar three_caches_scenario_3_links_network.node[1].content_store 	decision_no[1] 	139254
scalar three_caches_scenario_3_links_network.node[2].core_layer 	interests[2] 	14976
scalar three_caches_scenario_3_links_network.node[2].core_layer 	data[2] 	9087
scalar three_caches_scenario_3_links_network.node[2].content_store 	p_hit[2] 	0.39322916666667
scalar three_caches_scenario_3_links_network.node[2].content_store 	hits[2] 	5889
scalar three_caches_scenario_3_links_network.node[2].content_store 	misses[2] 	9087
scalar three_caches_scenario_3_links_network.node[2].content_store 	decision_yes[2] 	163
scalar three_caches_scenario_3_links_network.node[2].content_store 	decision_no[2] 	8924
scalar three_caches_scenario_3_links_network.node[3].core_layer 	interests[3] 	16238
scalar three_caches_scenario_3_links_network.node[3].core_layer 	data[3] 	9060
scalar three_caches_scenario_3_links_network.node[3].content_store 	p_hit[3] 	0.44204951348688
scalar three_caches_scenario_3_links_network.node[3].content_store 	hits[3] 	7178
scalar three_caches_scenario_3_links_network.node[3].content_store 	misses[3] 	9060
scalar three_caches_scenario_3_links_network.node[3].content_store 	decision_yes[3] 	151
scalar three_caches_scenario_3_links_network.node[3].content_store 	decision_no[3] 	8909
scalar three_caches_scenario_3_links_network.node[4].core_layer 	interests[4] 	139254
scalar three_caches_scenario_3_links_network.node[4].core_layer 	repo_load[4] 	139254
scalar three_caches_scenario_3_links_network.node[4].core_layer 	data[4] 	0
scalar three_caches_scenario_3_links_network.node[4].content_store 	p_hit[4] 	0
scalar three_caches_scenario_3_links_network.node[4].content_store 	hits[4] 	0
scalar three_caches_scenario_3_links_network.node[4].content_store 	misses[4] 	139254
scalar three_caches_scenario_3_links_network.node[4].content_store 	decision_yes[4] 	0
scalar three_caches_scenario_3_links_network.node[4].content_store 	decision_no[4] 	139254
scalar three_caches_scenario_3_links_network.node[5].core_layer 	interests[5] 	9087
scalar three_caches_scenario_3_links_network.node[5].core_layer 	repo_load[5] 	9087
scalar three_caches_scenario_3_links_network.node[5].core_layer 	data[5] 	0
scalar three_caches_scenario_3_links_network.node[5].content_store 	p_hit[5] 	0
scalar three_caches_scenario_3_links_network.node[5].content_store 	hits[5] 	0
scalar three_caches_scenario_3_links_network.node[5].content_store 	misses[5] 	9087
scalar three_caches_scenario_3_links_network.node[5].content_store 	decision_yes[5] 	0
scalar three_caches_scenario_3_links_network.node[5].content_store 	decision_no[5] 	9087
scalar three_caches_scenario_3_links_network.node[6].core_layer 	interests[6] 	9060
scalar three_caches_scenario_3_links_network.node[6].core_layer 	repo_load[6] 	9060
scalar three_caches_scenario_3_links_network.node[6].core_layer 	data[6] 	0
scalar three_caches_scenario_3_links_network.node[6].content_store 	p_hit[6] 	0
scalar three_caches_scenario_3_links_network.node[6].content_store 	hits[6] 	0
scalar three_caches_scenario_3_links_network.node[6].content_store 	misses[6] 	9060
scalar three_caches_scenario_3_links_network.node[6].content_store 	decision_yes[6] 	0
scalar three_caches_scenario_3_links_network.node[6].content_store 	decision_no[6] 	9060
scalar three_caches_scenario_3_links_network.client[0] 	hdistance[0] 	1.9234758826178
scalar three_caches_scenario_3_links_network.client[0] 	downloads[0] 	179891
scalar three_caches_scenario_3_links_network.client[0] 	avg_time[0] 	0
scalar three_caches_scenario_3_links_network.client[0] 	interests_sent[0] 	179891
