version 2
run General-750-20140421-20:18:36-15447
attr D lce
attr F nrr
attr R lru
attr a 0.8
attr configname General
attr csize 10
attr ctlg 10^3
attr datetime 20140421-20:18:36
attr experiment General
attr inifile omnetpp.ini
attr iterationvars "$net=simple_scenario, $rep=18, $priceratiovalue=6, $a=0.8, $ctlg=10^3, $F=nrr, $ttl=1000, $D=lce, $R=lru, $csize=10"
attr iterationvars2 "$net=simple_scenario, $rep=18, $priceratiovalue=6, $a=0.8, $ctlg=10^3, $F=nrr, $ttl=1000, $D=lce, $R=lru, $csize=10, $repetition=0"
attr measurement "$net=simple_scenario, $rep=18, $priceratiovalue=6, $a=0.8, $ctlg=10^3, $F=nrr, $ttl=1000, $D=lce, $R=lru, $csize=10"
attr net simple_scenario
attr network networks.${net=simple_scenario}_network
attr priceratiovalue 6
attr processid 15447
attr rep 18
attr repetition 0
attr replication #0
attr resultdir results
attr runnumber 750
attr seedset 18
attr ttl 1000

scalar . 	a 	0.8
scalar . 	csize 	10
scalar . 	priceratiovalue 	6
scalar . 	rep 	18
scalar . 	ttl 	1000
scalar simple_scenario_network.content_distribution 	repo-0 	3
scalar simple_scenario_network.content_distribution 	repo-1 	4
scalar simple_scenario_network.content_distribution 	client-0 	0
scalar simple_scenario_network.content_distribution 	repo-0_card 	499
scalar simple_scenario_network.content_distribution 	repo-1_card 	501
scalar simple_scenario_network.statistics 	p_hit 	0.049099908194627
scalar simple_scenario_network.statistics 	interests 	100212
scalar simple_scenario_network.statistics 	data 	64186.8
scalar simple_scenario_network.statistics 	hdistance 	2.6451372927839
scalar simple_scenario_network.statistics 	avg_time 	0.001997952371
scalar simple_scenario_network.statistics 	downloads 	180126
scalar simple_scenario_network.statistics 	total_cost 	76642
scalar simple_scenario_network.node[0].core_layer 	interests[0] 	180126
scalar simple_scenario_network.node[0].core_layer 	data[0] 	165410
scalar simple_scenario_network.node[0].core_layer 	repo_int[0] 	155524
scalar simple_scenario_network.node[0].content_store 	p_hit[0] 	0.081698366698866
scalar simple_scenario_network.node[0].content_store 	hits[0] 	14716
scalar simple_scenario_network.node[0].content_store 	misses[0] 	165410
scalar simple_scenario_network.node[1].core_layer 	interests[1] 	85007
scalar simple_scenario_network.node[1].core_layer 	data[1] 	79328
scalar simple_scenario_network.node[1].content_store 	p_hit[1] 	0.066806263013634
scalar simple_scenario_network.node[1].content_store 	hits[1] 	5679
scalar simple_scenario_network.node[1].content_store 	misses[1] 	79328
scalar simple_scenario_network.node[2].core_layer 	interests[2] 	80403
scalar simple_scenario_network.node[2].core_layer 	data[2] 	76196
scalar simple_scenario_network.node[2].content_store 	p_hit[2] 	0.052323918261756
scalar simple_scenario_network.node[2].content_store 	hits[2] 	4207
scalar simple_scenario_network.node[2].content_store 	misses[2] 	76196
scalar simple_scenario_network.node[3].core_layer 	interests[3] 	79328
scalar simple_scenario_network.node[3].core_layer 	repo_load[3] 	79328
scalar simple_scenario_network.node[3].core_layer 	data[3] 	0
scalar simple_scenario_network.node[3].content_store 	p_hit[3] 	0
scalar simple_scenario_network.node[3].content_store 	hits[3] 	0
scalar simple_scenario_network.node[3].content_store 	misses[3] 	79328
scalar simple_scenario_network.node[4].core_layer 	interests[4] 	76196
scalar simple_scenario_network.node[4].core_layer 	repo_load[4] 	76196
scalar simple_scenario_network.node[4].core_layer 	data[4] 	0
scalar simple_scenario_network.node[4].content_store 	p_hit[4] 	0
scalar simple_scenario_network.node[4].content_store 	hits[4] 	0
scalar simple_scenario_network.node[4].content_store 	misses[4] 	76196
scalar simple_scenario_network.client[0] 	hdistance[0] 	2.6451372927839
scalar simple_scenario_network.client[0] 	downloads[0] 	180126
scalar simple_scenario_network.client[0] 	avg_time[0] 	0.001997952371
