version 2
run General-390-20140421-20:10:16-15058
attr D lce
attr F nrr
attr R lru
attr a 0.8
attr configname General
attr csize 10
attr ctlg 10^3
attr datetime 20140421-20:10:16
attr experiment General
attr inifile omnetpp.ini
attr iterationvars "$net=simple_scenario, $rep=12, $priceratiovalue=6, $a=0.8, $ctlg=10^3, $F=nrr, $ttl=1000, $D=lce, $R=lru, $csize=10"
attr iterationvars2 "$net=simple_scenario, $rep=12, $priceratiovalue=6, $a=0.8, $ctlg=10^3, $F=nrr, $ttl=1000, $D=lce, $R=lru, $csize=10, $repetition=0"
attr measurement "$net=simple_scenario, $rep=12, $priceratiovalue=6, $a=0.8, $ctlg=10^3, $F=nrr, $ttl=1000, $D=lce, $R=lru, $csize=10"
attr net simple_scenario
attr network networks.${net=simple_scenario}_network
attr priceratiovalue 6
attr processid 15058
attr rep 12
attr repetition 0
attr replication #0
attr resultdir results
attr runnumber 390
attr seedset 12
attr ttl 1000

scalar . 	a 	0.8
scalar . 	csize 	10
scalar . 	priceratiovalue 	6
scalar . 	rep 	12
scalar . 	ttl 	1000
scalar simple_scenario_network.content_distribution 	repo-0 	3
scalar simple_scenario_network.content_distribution 	repo-1 	4
scalar simple_scenario_network.content_distribution 	client-0 	0
scalar simple_scenario_network.content_distribution 	repo-0_card 	492
scalar simple_scenario_network.content_distribution 	repo-1_card 	508
scalar simple_scenario_network.statistics 	p_hit 	0.048954905381023
scalar simple_scenario_network.statistics 	interests 	100096.2
scalar simple_scenario_network.statistics 	data 	64116.8
scalar simple_scenario_network.statistics 	hdistance 	2.6458473459813
scalar simple_scenario_network.statistics 	avg_time 	0.001997975846
scalar simple_scenario_network.statistics 	downloads 	179897
scalar simple_scenario_network.statistics 	total_cost 	80402
scalar simple_scenario_network.node[0].core_layer 	interests[0] 	179897
scalar simple_scenario_network.node[0].core_layer 	data[0] 	165188
scalar simple_scenario_network.node[0].core_layer 	repo_int[0] 	155396
scalar simple_scenario_network.node[0].content_store 	p_hit[0] 	0.081763453531743
scalar simple_scenario_network.node[0].content_store 	hits[0] 	14709
scalar simple_scenario_network.node[0].content_store 	misses[0] 	165188
scalar simple_scenario_network.node[1].core_layer 	interests[1] 	77464
scalar simple_scenario_network.node[1].core_layer 	data[1] 	73911
scalar simple_scenario_network.node[1].content_store 	p_hit[1] 	0.045866467004028
scalar simple_scenario_network.node[1].content_store 	hits[1] 	3553
scalar simple_scenario_network.node[1].content_store 	misses[1] 	73911
scalar simple_scenario_network.node[2].core_layer 	interests[2] 	87724
scalar simple_scenario_network.node[2].core_layer 	data[2] 	81485
scalar simple_scenario_network.node[2].content_store 	p_hit[2] 	0.071120787925767
scalar simple_scenario_network.node[2].content_store 	hits[2] 	6239
scalar simple_scenario_network.node[2].content_store 	misses[2] 	81485
scalar simple_scenario_network.node[3].core_layer 	interests[3] 	73911
scalar simple_scenario_network.node[3].core_layer 	repo_load[3] 	73911
scalar simple_scenario_network.node[3].core_layer 	data[3] 	0
scalar simple_scenario_network.node[3].content_store 	p_hit[3] 	0
scalar simple_scenario_network.node[3].content_store 	hits[3] 	0
scalar simple_scenario_network.node[3].content_store 	misses[3] 	73911
scalar simple_scenario_network.node[4].core_layer 	interests[4] 	81485
scalar simple_scenario_network.node[4].core_layer 	repo_load[4] 	81485
scalar simple_scenario_network.node[4].core_layer 	data[4] 	0
scalar simple_scenario_network.node[4].content_store 	p_hit[4] 	0
scalar simple_scenario_network.node[4].content_store 	hits[4] 	0
scalar simple_scenario_network.node[4].content_store 	misses[4] 	81485
scalar simple_scenario_network.client[0] 	hdistance[0] 	2.6458473459813
scalar simple_scenario_network.client[0] 	downloads[0] 	179897
scalar simple_scenario_network.client[0] 	avg_time[0] 	0.001997975846
