version 2
run General-1528-20140421-20:36:34-16290
attr D costprob0.1
attr F nrr
attr R lru
attr a 0.8
attr configname General
attr csize 10
attr ctlg 10^3
attr datetime 20140421-20:36:34
attr experiment General
attr inifile omnetpp.ini
attr iterationvars "$net=simple_scenario, $rep=31, $priceratiovalue=5, $a=0.8, $ctlg=10^3, $F=nrr, $ttl=1000, $D=costprob0.1, $R=lru, $csize=10"
attr iterationvars2 "$net=simple_scenario, $rep=31, $priceratiovalue=5, $a=0.8, $ctlg=10^3, $F=nrr, $ttl=1000, $D=costprob0.1, $R=lru, $csize=10, $repetition=0"
attr measurement "$net=simple_scenario, $rep=31, $priceratiovalue=5, $a=0.8, $ctlg=10^3, $F=nrr, $ttl=1000, $D=costprob0.1, $R=lru, $csize=10"
attr net simple_scenario
attr network networks.${net=simple_scenario}_network
attr priceratiovalue 5
attr processid 16290
attr rep 31
attr repetition 0
attr replication #0
attr resultdir results
attr runnumber 1528
attr seedset 31
attr ttl 1000

scalar . 	a 	0.8
scalar . 	csize 	10
scalar . 	priceratiovalue 	5
scalar . 	rep 	31
scalar . 	ttl 	1000
scalar simple_scenario_network.content_distribution 	repo-0 	3
scalar simple_scenario_network.content_distribution 	repo-1 	4
scalar simple_scenario_network.content_distribution 	client-0 	0
scalar simple_scenario_network.content_distribution 	repo-0_card 	521
scalar simple_scenario_network.content_distribution 	repo-1_card 	479
scalar simple_scenario_network.statistics 	p_hit 	0.091806260802132
scalar simple_scenario_network.statistics 	interests 	96971.6
scalar simple_scenario_network.statistics 	data 	60939.6
scalar simple_scenario_network.statistics 	hdistance 	2.4441884991119
scalar simple_scenario_network.statistics 	avg_time 	0.00199803724
scalar simple_scenario_network.statistics 	downloads 	180160
scalar simple_scenario_network.statistics 	total_cost 	63035
scalar simple_scenario_network.node[0].core_layer 	interests[0] 	180160
scalar simple_scenario_network.node[0].core_layer 	data[0] 	169051
scalar simple_scenario_network.node[0].core_layer 	repo_int[0] 	135647
scalar simple_scenario_network.node[0].content_store 	p_hit[0] 	0.061661856127886
scalar simple_scenario_network.node[0].content_store 	hits[0] 	11109
scalar simple_scenario_network.node[0].content_store 	misses[0] 	169051
scalar simple_scenario_network.node[1].core_layer 	interests[1] 	100140
scalar simple_scenario_network.node[1].core_layer 	data[1] 	75005
scalar simple_scenario_network.node[1].content_store 	p_hit[1] 	0.25099860195726
scalar simple_scenario_network.node[1].content_store 	hits[1] 	25135
scalar simple_scenario_network.node[1].content_store 	misses[1] 	75005
scalar simple_scenario_network.node[2].core_layer 	interests[2] 	68911
scalar simple_scenario_network.node[2].core_layer 	data[2] 	60642
scalar simple_scenario_network.node[2].content_store 	p_hit[2] 	0.11999535632918
scalar simple_scenario_network.node[2].content_store 	hits[2] 	8269
scalar simple_scenario_network.node[2].content_store 	misses[2] 	60642
scalar simple_scenario_network.node[3].core_layer 	interests[3] 	75005
scalar simple_scenario_network.node[3].core_layer 	repo_load[3] 	75005
scalar simple_scenario_network.node[3].core_layer 	data[3] 	0
scalar simple_scenario_network.node[3].content_store 	p_hit[3] 	0
scalar simple_scenario_network.node[3].content_store 	hits[3] 	0
scalar simple_scenario_network.node[3].content_store 	misses[3] 	75005
scalar simple_scenario_network.node[4].core_layer 	interests[4] 	60642
scalar simple_scenario_network.node[4].core_layer 	repo_load[4] 	60642
scalar simple_scenario_network.node[4].core_layer 	data[4] 	0
scalar simple_scenario_network.node[4].content_store 	p_hit[4] 	0
scalar simple_scenario_network.node[4].content_store 	hits[4] 	0
scalar simple_scenario_network.node[4].content_store 	misses[4] 	60642
scalar simple_scenario_network.client[0] 	hdistance[0] 	2.4441884991119
scalar simple_scenario_network.client[0] 	downloads[0] 	180160
scalar simple_scenario_network.client[0] 	avg_time[0] 	0.00199803724
