version 2
run General-2319-20140422-20:28:17-6495
attr D fix0.01
attr F nrr
attr R lru
attr a 0
attr configname General
attr csize 10
attr ctlg 10^3
attr datetime 20140422-20:28:17
attr experiment General
attr inifile omnetpp.ini
attr iterationvars "$net=simple_scenario, $rep=20, $priceratiovalue=4, $a=0, $ctlg=10^3, $F=nrr, $ttl=1000, $D=fix0.01, $R=lru, $csize=10"
attr iterationvars2 "$net=simple_scenario, $rep=20, $priceratiovalue=4, $a=0, $ctlg=10^3, $F=nrr, $ttl=1000, $D=fix0.01, $R=lru, $csize=10, $repetition=0"
attr measurement "$net=simple_scenario, $rep=20, $priceratiovalue=4, $a=0, $ctlg=10^3, $F=nrr, $ttl=1000, $D=fix0.01, $R=lru, $csize=10"
attr net simple_scenario
attr network networks.${net=simple_scenario}_network
attr priceratiovalue 4
attr processid 6495
attr rep 20
attr repetition 0
attr replication #0
attr resultdir results
attr runnumber 2319
attr seedset 20
attr ttl 1000

scalar . 	a 	0
scalar . 	csize 	10
scalar . 	priceratiovalue 	4
scalar . 	rep 	20
scalar . 	ttl 	1000
scalar simple_scenario_network.content_distribution 	repo-0 	3
scalar simple_scenario_network.content_distribution 	repo-1 	4
scalar simple_scenario_network.content_distribution 	client-0 	0
scalar simple_scenario_network.content_distribution 	repo-0_card 	484
scalar simple_scenario_network.content_distribution 	repo-1_card 	516
scalar simple_scenario_network.statistics 	p_hit 	0.010224197078854
scalar simple_scenario_network.statistics 	interests 	106629.4
scalar simple_scenario_network.statistics 	data 	70601.4
scalar simple_scenario_network.statistics 	hdistance 	2.9293660486288
scalar simple_scenario_network.statistics 	avg_time 	0.001999710096
scalar simple_scenario_network.statistics 	downloads 	180140
scalar simple_scenario_network.statistics 	total_cost 	89105
scalar simple_scenario_network.node[0].core_layer 	interests[0] 	180140
scalar simple_scenario_network.node[0].core_layer 	data[0] 	178318
scalar simple_scenario_network.node[0].core_layer 	repo_int[0] 	174689
scalar simple_scenario_network.node[0].content_store 	p_hit[0] 	0.010114355501277
scalar simple_scenario_network.node[0].content_store 	hits[0] 	1822
scalar simple_scenario_network.node[0].content_store 	misses[0] 	178318
scalar simple_scenario_network.node[1].core_layer 	interests[1] 	86248
scalar simple_scenario_network.node[1].core_layer 	data[1] 	84409
scalar simple_scenario_network.node[1].content_store 	p_hit[1] 	0.021322233559039
scalar simple_scenario_network.node[1].content_store 	hits[1] 	1839
scalar simple_scenario_network.node[1].content_store 	misses[1] 	84409
scalar simple_scenario_network.node[2].core_layer 	interests[2] 	92070
scalar simple_scenario_network.node[2].core_layer 	data[2] 	90280
scalar simple_scenario_network.node[2].content_store 	p_hit[2] 	0.019441729119148
scalar simple_scenario_network.node[2].content_store 	hits[2] 	1790
scalar simple_scenario_network.node[2].content_store 	misses[2] 	90280
scalar simple_scenario_network.node[3].core_layer 	interests[3] 	84409
scalar simple_scenario_network.node[3].core_layer 	repo_load[3] 	84409
scalar simple_scenario_network.node[3].core_layer 	data[3] 	0
scalar simple_scenario_network.node[3].content_store 	p_hit[3] 	0
scalar simple_scenario_network.node[3].content_store 	hits[3] 	0
scalar simple_scenario_network.node[3].content_store 	misses[3] 	84409
scalar simple_scenario_network.node[4].core_layer 	interests[4] 	90280
scalar simple_scenario_network.node[4].core_layer 	repo_load[4] 	90280
scalar simple_scenario_network.node[4].core_layer 	data[4] 	0
scalar simple_scenario_network.node[4].content_store 	p_hit[4] 	0
scalar simple_scenario_network.node[4].content_store 	hits[4] 	0
scalar simple_scenario_network.node[4].content_store 	misses[4] 	90280
scalar simple_scenario_network.client[0] 	hdistance[0] 	2.9293660486288
scalar simple_scenario_network.client[0] 	downloads[0] 	180140
scalar simple_scenario_network.client[0] 	avg_time[0] 	0.001999710096
