version 2
run General-1699-20140425-16:29:11-14250
attr D costprob0.2
attr F nrr
attr R lru
attr a 0.8
attr configname General
attr csize 9
attr ctlg 10^3
attr datetime 20140425-16:29:11
attr experiment General
attr inifile omnetpp.ini
attr iterationvars "$net=one_cache_scenario, $rep=15, $priceratiovalue=2, $a=0.8, $ctlg=10^3, $F=nrr, $ttl=1000, $D=costprob0.2, $R=lru, $csize=9"
attr iterationvars2 "$net=one_cache_scenario, $rep=15, $priceratiovalue=2, $a=0.8, $ctlg=10^3, $F=nrr, $ttl=1000, $D=costprob0.2, $R=lru, $csize=9, $repetition=0"
attr measurement "$net=one_cache_scenario, $rep=15, $priceratiovalue=2, $a=0.8, $ctlg=10^3, $F=nrr, $ttl=1000, $D=costprob0.2, $R=lru, $csize=9"
attr net one_cache_scenario
attr network networks.${net=one_cache_scenario}_network
attr priceratiovalue 2
attr processid 14250
attr rep 15
attr repetition 0
attr replication #0
attr resultdir results
attr runnumber 1699
attr seedset 15
attr ttl 1000

scalar . 	a 	0.8
scalar . 	csize 	9
scalar . 	priceratiovalue 	2
scalar . 	rep 	15
scalar . 	ttl 	1000
scalar one_cache_scenario_network.content_distribution 	repo-0 	3
scalar one_cache_scenario_network.content_distribution 	repo-1 	4
scalar one_cache_scenario_network.content_distribution 	client-0 	0
scalar one_cache_scenario_network.content_distribution 	repo-0_card 	484
scalar one_cache_scenario_network.content_distribution 	repo-1_card 	516
scalar one_cache_scenario_network.statistics 	p_hit 	0.043758380613753
scalar one_cache_scenario_network.statistics 	interests 	99336.4
scalar one_cache_scenario_network.statistics 	data 	63326.4
scalar one_cache_scenario_network.statistics 	hdistance 	1.7585781727298
scalar one_cache_scenario_network.statistics 	avg_time 	0
scalar one_cache_scenario_network.statistics 	downloads 	180050
scalar one_cache_scenario_network.statistics 	total_cost 	82066
scalar one_cache_scenario_network.statistics 	interests_sent 	180050
scalar one_cache_scenario_network.node[0].core_layer 	interests[0] 	180050
scalar one_cache_scenario_network.node[0].core_layer 	data[0] 	158316
scalar one_cache_scenario_network.node[0].core_layer 	repo_int[0] 	158316
scalar one_cache_scenario_network.node[0].content_store 	p_hit[0] 	0.1207109136351
scalar one_cache_scenario_network.node[0].content_store 	hits[0] 	21734
scalar one_cache_scenario_network.node[0].content_store 	misses[0] 	158316
scalar one_cache_scenario_network.node[0].content_store 	decision_yes[0] 	16154
scalar one_cache_scenario_network.node[0].content_store 	decision_no[0] 	142162
scalar one_cache_scenario_network.node[1].core_layer 	interests[1] 	70432
scalar one_cache_scenario_network.node[1].core_layer 	data[1] 	70432
scalar one_cache_scenario_network.node[1].content_store 	p_hit[1] 	0
scalar one_cache_scenario_network.node[1].content_store 	hits[1] 	0
scalar one_cache_scenario_network.node[1].content_store 	misses[1] 	70432
scalar one_cache_scenario_network.node[1].content_store 	decision_yes[1] 	0
scalar one_cache_scenario_network.node[1].content_store 	decision_no[1] 	70432
scalar one_cache_scenario_network.node[2].core_layer 	interests[2] 	87884
scalar one_cache_scenario_network.node[2].core_layer 	data[2] 	87884
scalar one_cache_scenario_network.node[2].content_store 	p_hit[2] 	0
scalar one_cache_scenario_network.node[2].content_store 	hits[2] 	0
scalar one_cache_scenario_network.node[2].content_store 	misses[2] 	87884
scalar one_cache_scenario_network.node[2].content_store 	decision_yes[2] 	0
scalar one_cache_scenario_network.node[2].content_store 	decision_no[2] 	87884
scalar one_cache_scenario_network.node[3].core_layer 	interests[3] 	70432
scalar one_cache_scenario_network.node[3].core_layer 	repo_load[3] 	70432
scalar one_cache_scenario_network.node[3].core_layer 	data[3] 	0
scalar one_cache_scenario_network.node[3].content_store 	p_hit[3] 	0
scalar one_cache_scenario_network.node[3].content_store 	hits[3] 	0
scalar one_cache_scenario_network.node[3].content_store 	misses[3] 	70432
scalar one_cache_scenario_network.node[3].content_store 	decision_yes[3] 	0
scalar one_cache_scenario_network.node[3].content_store 	decision_no[3] 	70432
scalar one_cache_scenario_network.node[4].core_layer 	interests[4] 	87884
scalar one_cache_scenario_network.node[4].core_layer 	repo_load[4] 	87884
scalar one_cache_scenario_network.node[4].core_layer 	data[4] 	0
scalar one_cache_scenario_network.node[4].content_store 	p_hit[4] 	0
scalar one_cache_scenario_network.node[4].content_store 	hits[4] 	0
scalar one_cache_scenario_network.node[4].content_store 	misses[4] 	87884
scalar one_cache_scenario_network.node[4].content_store 	decision_yes[4] 	0
scalar one_cache_scenario_network.node[4].content_store 	decision_no[4] 	87884
scalar one_cache_scenario_network.client[0] 	hdistance[0] 	1.7585781727298
scalar one_cache_scenario_network.client[0] 	downloads[0] 	180050
scalar one_cache_scenario_network.client[0] 	avg_time[0] 	0
scalar one_cache_scenario_network.client[0] 	interests_sent[0] 	180050
