version 2
run General-1295-20140422-20:06:14-28125
attr D costprob0.01
attr F nrr
attr R lru
attr a 1.2
attr configname General
attr csize 10
attr ctlg 10^3
attr datetime 20140422-20:06:14
attr experiment General
attr inifile omnetpp.ini
attr iterationvars "$net=simple_scenario, $rep=11, $priceratiovalue=8, $a=1.2, $ctlg=10^3, $F=nrr, $ttl=1000, $D=costprob0.01, $R=lru, $csize=10"
attr iterationvars2 "$net=simple_scenario, $rep=11, $priceratiovalue=8, $a=1.2, $ctlg=10^3, $F=nrr, $ttl=1000, $D=costprob0.01, $R=lru, $csize=10, $repetition=0"
attr measurement "$net=simple_scenario, $rep=11, $priceratiovalue=8, $a=1.2, $ctlg=10^3, $F=nrr, $ttl=1000, $D=costprob0.01, $R=lru, $csize=10"
attr net simple_scenario
attr network networks.${net=simple_scenario}_network
attr priceratiovalue 8
attr processid 28125
attr rep 11
attr repetition 0
attr replication #0
attr resultdir results
attr runnumber 1295
attr seedset 11
attr ttl 1000

scalar . 	a 	1.2
scalar . 	csize 	10
scalar . 	priceratiovalue 	8
scalar . 	rep 	11
scalar . 	ttl 	1000
scalar simple_scenario_network.content_distribution 	repo-0 	3
scalar simple_scenario_network.content_distribution 	repo-1 	4
scalar simple_scenario_network.content_distribution 	client-0 	0
scalar simple_scenario_network.content_distribution 	repo-0_card 	503
scalar simple_scenario_network.content_distribution 	repo-1_card 	497
scalar simple_scenario_network.statistics 	p_hit 	0.31413075535766
scalar simple_scenario_network.statistics 	interests 	76628.6
scalar simple_scenario_network.statistics 	data 	40488.4
scalar simple_scenario_network.statistics 	hdistance 	1.4542586925363
scalar simple_scenario_network.statistics 	avg_time 	0.001984851087
scalar simple_scenario_network.statistics 	downloads 	180701
scalar simple_scenario_network.statistics 	total_cost 	29575
scalar simple_scenario_network.node[0].core_layer 	interests[0] 	180701
scalar simple_scenario_network.node[0].core_layer 	data[0] 	142098
scalar simple_scenario_network.node[0].core_layer 	repo_int[0] 	60344
scalar simple_scenario_network.node[0].content_store 	p_hit[0] 	0.21362914427701
scalar simple_scenario_network.node[0].content_store 	hits[0] 	38603
scalar simple_scenario_network.node[0].content_store 	misses[0] 	142098
scalar simple_scenario_network.node[1].core_layer 	interests[1] 	51503
scalar simple_scenario_network.node[1].core_layer 	data[1] 	30938
scalar simple_scenario_network.node[1].content_store 	p_hit[1] 	0.39929712832262
scalar simple_scenario_network.node[1].content_store 	hits[1] 	20565
scalar simple_scenario_network.node[1].content_store 	misses[1] 	30938
scalar simple_scenario_network.node[2].core_layer 	interests[2] 	90595
scalar simple_scenario_network.node[2].core_layer 	data[2] 	29406
scalar simple_scenario_network.node[2].content_store 	p_hit[2] 	0.6754125503615
scalar simple_scenario_network.node[2].content_store 	hits[2] 	61189
scalar simple_scenario_network.node[2].content_store 	misses[2] 	29406
scalar simple_scenario_network.node[3].core_layer 	interests[3] 	30938
scalar simple_scenario_network.node[3].core_layer 	repo_load[3] 	30938
scalar simple_scenario_network.node[3].core_layer 	data[3] 	0
scalar simple_scenario_network.node[3].content_store 	p_hit[3] 	0
scalar simple_scenario_network.node[3].content_store 	hits[3] 	0
scalar simple_scenario_network.node[3].content_store 	misses[3] 	30938
scalar simple_scenario_network.node[4].core_layer 	interests[4] 	29406
scalar simple_scenario_network.node[4].core_layer 	repo_load[4] 	29406
scalar simple_scenario_network.node[4].core_layer 	data[4] 	0
scalar simple_scenario_network.node[4].content_store 	p_hit[4] 	0
scalar simple_scenario_network.node[4].content_store 	hits[4] 	0
scalar simple_scenario_network.node[4].content_store 	misses[4] 	29406
scalar simple_scenario_network.client[0] 	hdistance[0] 	1.4542586925363
scalar simple_scenario_network.client[0] 	downloads[0] 	180701
scalar simple_scenario_network.client[0] 	avg_time[0] 	0.001984851087
