version 2
run General-1344-20140502-03:38:10-10260
attr D costprob0.1
attr F nrr
attr R lru
attr a 1
attr configname General
attr csize 1e3
attr ctlg 1e5
attr datetime 20140502-03:38:10
attr experiment General
attr inifile omnetpp.ini
attr iterationvars "$net=three_caches_scenario_3_links, $rep=3, $priceratiovalue=2, $weights=0.2_0.4_0.4, $a=1, $ctlg=1e5, $F=nrr, $ttl=1000, $D=costprob0.1, $xi=1, $R=lru, $csize=1e3"
attr iterationvars2 "$net=three_caches_scenario_3_links, $rep=3, $priceratiovalue=2, $weights=0.2_0.4_0.4, $a=1, $ctlg=1e5, $F=nrr, $ttl=1000, $D=costprob0.1, $xi=1, $R=lru, $csize=1e3, $repetition=0"
attr measurement "$net=three_caches_scenario_3_links, $rep=3, $priceratiovalue=2, $weights=0.2_0.4_0.4, $a=1, $ctlg=1e5, $F=nrr, $ttl=1000, $D=costprob0.1, $xi=1, $R=lru, $csize=1e3"
attr net three_caches_scenario_3_links
attr network networks.${net=three_caches_scenario_3_links}_network
attr priceratiovalue 2
attr processid 10260
attr rep 3
attr repetition 0
attr replication #0
attr resultdir results
attr runnumber 1344
attr seedset 3
attr ttl 1000
attr weights 0.2_0.4_0.4
attr xi 1

scalar . 	a 	1
scalar . 	csize 	1e3
scalar . 	ctlg 	1e5
scalar . 	priceratiovalue 	2
scalar . 	rep 	3
scalar . 	ttl 	1000
scalar . 	xi 	1
scalar three_caches_scenario_3_links_network.content_distribution 	repo-0 	4
scalar three_caches_scenario_3_links_network.content_distribution 	repo-1 	5
scalar three_caches_scenario_3_links_network.content_distribution 	repo-2 	6
scalar three_caches_scenario_3_links_network.content_distribution 	client-0 	0
scalar three_caches_scenario_3_links_network.content_distribution 	repo-0_card 	20144
scalar three_caches_scenario_3_links_network.content_distribution 	repo-1_card 	39732
scalar three_caches_scenario_3_links_network.content_distribution 	repo-2_card 	40124
scalar three_caches_scenario_3_links_network.statistics 	p_hit 	0.17610652356322
scalar three_caches_scenario_3_links_network.statistics 	interests 	61121.285714286
scalar three_caches_scenario_3_links_network.statistics 	data 	35446.714285714
scalar three_caches_scenario_3_links_network.statistics 	hdistance 	1.7334883876209
scalar three_caches_scenario_3_links_network.statistics 	avg_time 	0
scalar three_caches_scenario_3_links_network.statistics 	downloads 	179722
scalar three_caches_scenario_3_links_network.statistics 	total_cost 	95083
scalar three_caches_scenario_3_links_network.statistics 	total_replicas 	100000
scalar three_caches_scenario_3_links_network.statistics 	interests_sent 	179722
scalar three_caches_scenario_3_links_network.node[0].core_layer 	interests[0] 	179722
scalar three_caches_scenario_3_links_network.node[0].core_layer 	data[0] 	143752
scalar three_caches_scenario_3_links_network.node[0].core_layer 	repo_int[0] 	104375
scalar three_caches_scenario_3_links_network.node[0].content_store 	p_hit[0] 	0.20014244221631
scalar three_caches_scenario_3_links_network.node[0].content_store 	hits[0] 	35970
scalar three_caches_scenario_3_links_network.node[0].content_store 	misses[0] 	143752
scalar three_caches_scenario_3_links_network.node[0].content_store 	decision_yes[0] 	7998
scalar three_caches_scenario_3_links_network.node[0].content_store 	decision_no[0] 	135754
scalar three_caches_scenario_3_links_network.node[1].core_layer 	interests[1] 	40956
scalar three_caches_scenario_3_links_network.node[1].core_layer 	data[1] 	40956
scalar three_caches_scenario_3_links_network.node[1].content_store 	p_hit[1] 	0
scalar three_caches_scenario_3_links_network.node[1].content_store 	hits[1] 	0
scalar three_caches_scenario_3_links_network.node[1].content_store 	misses[1] 	40956
scalar three_caches_scenario_3_links_network.node[1].content_store 	decision_yes[1] 	0
scalar three_caches_scenario_3_links_network.node[1].content_store 	decision_no[1] 	40956
scalar three_caches_scenario_3_links_network.node[2].core_layer 	interests[2] 	61234
scalar three_caches_scenario_3_links_network.node[2].core_layer 	data[2] 	31755
scalar three_caches_scenario_3_links_network.node[2].content_store 	p_hit[2] 	0.4814155534507
scalar three_caches_scenario_3_links_network.node[2].content_store 	hits[2] 	29479
scalar three_caches_scenario_3_links_network.node[2].content_store 	misses[2] 	31755
scalar three_caches_scenario_3_links_network.node[2].content_store 	decision_yes[2] 	2586
scalar three_caches_scenario_3_links_network.node[2].content_store 	decision_no[2] 	29169
scalar three_caches_scenario_3_links_network.node[3].core_layer 	interests[3] 	41562
scalar three_caches_scenario_3_links_network.node[3].core_layer 	data[3] 	31664
scalar three_caches_scenario_3_links_network.node[3].content_store 	p_hit[3] 	0.23815023338627
scalar three_caches_scenario_3_links_network.node[3].content_store 	hits[3] 	9898
scalar three_caches_scenario_3_links_network.node[3].content_store 	misses[3] 	31664
scalar three_caches_scenario_3_links_network.node[3].content_store 	decision_yes[3] 	5250
scalar three_caches_scenario_3_links_network.node[3].content_store 	decision_no[3] 	26414
scalar three_caches_scenario_3_links_network.node[4].core_layer 	interests[4] 	40956
scalar three_caches_scenario_3_links_network.node[4].core_layer 	repo_load[4] 	40956
scalar three_caches_scenario_3_links_network.node[4].core_layer 	data[4] 	0
scalar three_caches_scenario_3_links_network.node[4].content_store 	p_hit[4] 	0
scalar three_caches_scenario_3_links_network.node[4].content_store 	hits[4] 	0
scalar three_caches_scenario_3_links_network.node[4].content_store 	misses[4] 	40956
scalar three_caches_scenario_3_links_network.node[4].content_store 	decision_yes[4] 	0
scalar three_caches_scenario_3_links_network.node[4].content_store 	decision_no[4] 	40956
scalar three_caches_scenario_3_links_network.node[5].core_layer 	interests[5] 	31755
scalar three_caches_scenario_3_links_network.node[5].core_layer 	repo_load[5] 	31755
scalar three_caches_scenario_3_links_network.node[5].core_layer 	data[5] 	0
scalar three_caches_scenario_3_links_network.node[5].content_store 	p_hit[5] 	0
scalar three_caches_scenario_3_links_network.node[5].content_store 	hits[5] 	0
scalar three_caches_scenario_3_links_network.node[5].content_store 	misses[5] 	31755
scalar three_caches_scenario_3_links_network.node[5].content_store 	decision_yes[5] 	0
scalar three_caches_scenario_3_links_network.node[5].content_store 	decision_no[5] 	31755
scalar three_caches_scenario_3_links_network.node[6].core_layer 	interests[6] 	31664
scalar three_caches_scenario_3_links_network.node[6].core_layer 	repo_load[6] 	31664
scalar three_caches_scenario_3_links_network.node[6].core_layer 	data[6] 	0
scalar three_caches_scenario_3_links_network.node[6].content_store 	p_hit[6] 	0
scalar three_caches_scenario_3_links_network.node[6].content_store 	hits[6] 	0
scalar three_caches_scenario_3_links_network.node[6].content_store 	misses[6] 	31664
scalar three_caches_scenario_3_links_network.node[6].content_store 	decision_yes[6] 	0
scalar three_caches_scenario_3_links_network.node[6].content_store 	decision_no[6] 	31664
scalar three_caches_scenario_3_links_network.client[0] 	hdistance[0] 	1.7334883876209
scalar three_caches_scenario_3_links_network.client[0] 	downloads[0] 	179722
scalar three_caches_scenario_3_links_network.client[0] 	avg_time[0] 	0
scalar three_caches_scenario_3_links_network.client[0] 	interests_sent[0] 	179722
