version 2
run General-363-20140426-20:09:15-13956
attr D costprob0.02
attr F nrr
attr R lru
attr a 1
attr configname General
attr csize 1000
attr ctlg 10^5
attr datetime 20140426-20:09:15
attr experiment General
attr inifile omnetpp.ini
attr iterationvars "$net=one_cache_scenario, $rep=10, $priceratiovalue=1, $a=1, $ctlg=10^5, $F=nrr, $ttl=1000, $D=costprob0.02, $xi=2, $R=lru, $csize=1000"
attr iterationvars2 "$net=one_cache_scenario, $rep=10, $priceratiovalue=1, $a=1, $ctlg=10^5, $F=nrr, $ttl=1000, $D=costprob0.02, $xi=2, $R=lru, $csize=1000, $repetition=0"
attr measurement "$net=one_cache_scenario, $rep=10, $priceratiovalue=1, $a=1, $ctlg=10^5, $F=nrr, $ttl=1000, $D=costprob0.02, $xi=2, $R=lru, $csize=1000"
attr net one_cache_scenario
attr network networks.${net=one_cache_scenario}_network
attr priceratiovalue 1
attr processid 13956
attr rep 10
attr repetition 0
attr replication #0
attr resultdir results
attr runnumber 363
attr seedset 10
attr ttl 1000
attr xi 2

scalar . 	a 	1
scalar . 	csize 	1000
scalar . 	priceratiovalue 	1
scalar . 	rep 	10
scalar . 	ttl 	1000
scalar . 	xi 	2
scalar one_cache_scenario_network.content_distribution 	repo-0 	3
scalar one_cache_scenario_network.content_distribution 	repo-1 	4
scalar one_cache_scenario_network.content_distribution 	client-0 	0
scalar one_cache_scenario_network.content_distribution 	repo-0_card 	49996
scalar one_cache_scenario_network.content_distribution 	repo-1_card 	50004
scalar one_cache_scenario_network.statistics 	p_hit 	0.27447345575195
scalar one_cache_scenario_network.statistics 	interests 	69804.2
scalar one_cache_scenario_network.statistics 	data 	33763.2
scalar one_cache_scenario_network.statistics 	hdistance 	0.93679975583363
scalar one_cache_scenario_network.statistics 	avg_time 	0
scalar one_cache_scenario_network.statistics 	downloads 	180205
scalar one_cache_scenario_network.statistics 	total_cost 	42203
scalar one_cache_scenario_network.statistics 	interests_sent 	180205
scalar one_cache_scenario_network.node[0].core_layer 	interests[0] 	180205
scalar one_cache_scenario_network.node[0].core_layer 	data[0] 	84408
scalar one_cache_scenario_network.node[0].core_layer 	repo_int[0] 	84408
scalar one_cache_scenario_network.node[0].content_store 	p_hit[0] 	0.53160012208318
scalar one_cache_scenario_network.node[0].content_store 	hits[0] 	95797
scalar one_cache_scenario_network.node[0].content_store 	misses[0] 	84408
scalar one_cache_scenario_network.node[0].content_store 	decision_yes[0] 	887
scalar one_cache_scenario_network.node[0].content_store 	decision_no[0] 	83521
scalar one_cache_scenario_network.node[1].core_layer 	interests[1] 	41281
scalar one_cache_scenario_network.node[1].core_layer 	data[1] 	41281
scalar one_cache_scenario_network.node[1].content_store 	p_hit[1] 	0
scalar one_cache_scenario_network.node[1].content_store 	hits[1] 	0
scalar one_cache_scenario_network.node[1].content_store 	misses[1] 	41281
scalar one_cache_scenario_network.node[1].content_store 	decision_yes[1] 	0
scalar one_cache_scenario_network.node[1].content_store 	decision_no[1] 	41281
scalar one_cache_scenario_network.node[2].core_layer 	interests[2] 	43127
scalar one_cache_scenario_network.node[2].core_layer 	data[2] 	43127
scalar one_cache_scenario_network.node[2].content_store 	p_hit[2] 	0
scalar one_cache_scenario_network.node[2].content_store 	hits[2] 	0
scalar one_cache_scenario_network.node[2].content_store 	misses[2] 	43127
scalar one_cache_scenario_network.node[2].content_store 	decision_yes[2] 	0
scalar one_cache_scenario_network.node[2].content_store 	decision_no[2] 	43127
scalar one_cache_scenario_network.node[3].core_layer 	interests[3] 	41281
scalar one_cache_scenario_network.node[3].core_layer 	repo_load[3] 	41281
scalar one_cache_scenario_network.node[3].core_layer 	data[3] 	0
scalar one_cache_scenario_network.node[3].content_store 	p_hit[3] 	0
scalar one_cache_scenario_network.node[3].content_store 	hits[3] 	0
scalar one_cache_scenario_network.node[3].content_store 	misses[3] 	41281
scalar one_cache_scenario_network.node[3].content_store 	decision_yes[3] 	0
scalar one_cache_scenario_network.node[3].content_store 	decision_no[3] 	41281
scalar one_cache_scenario_network.node[4].core_layer 	interests[4] 	43127
scalar one_cache_scenario_network.node[4].core_layer 	repo_load[4] 	43127
scalar one_cache_scenario_network.node[4].core_layer 	data[4] 	0
scalar one_cache_scenario_network.node[4].content_store 	p_hit[4] 	0
scalar one_cache_scenario_network.node[4].content_store 	hits[4] 	0
scalar one_cache_scenario_network.node[4].content_store 	misses[4] 	43127
scalar one_cache_scenario_network.node[4].content_store 	decision_yes[4] 	0
scalar one_cache_scenario_network.node[4].content_store 	decision_no[4] 	43127
scalar one_cache_scenario_network.client[0] 	hdistance[0] 	0.93679975583363
scalar one_cache_scenario_network.client[0] 	downloads[0] 	180205
scalar one_cache_scenario_network.client[0] 	avg_time[0] 	0
scalar one_cache_scenario_network.client[0] 	interests_sent[0] 	180205
