version 2
run General-5-20140625-19:02:06-12343
attr D costprobprodcorr0.01
attr F spr
attr R lru
attr a 1
attr configname General
attr csize 1e3
attr ctlg 1e5
attr datetime 20140625-19:02:06
attr experiment General
attr inifile omnetpp.ini
attr iterationvars "$net=geant_cost, $rep=1, $priceratiovalue=10, $weights=0.333_0.333_0.334, $lambda=100, $a=1, $ctlg=1e5, $F=spr, $ttl=1000, $D=costprobprodcorr0.01, $xi=1.25, $R=lru, $csize=1e3, $pricebits=0, $mytime=1800"
attr iterationvars2 "$net=geant_cost, $rep=1, $priceratiovalue=10, $weights=0.333_0.333_0.334, $lambda=100, $a=1, $ctlg=1e5, $F=spr, $ttl=1000, $D=costprobprodcorr0.01, $xi=1.25, $R=lru, $csize=1e3, $pricebits=0, $mytime=1800, $repetition=0"
attr lambda 100
attr measurement "$net=geant_cost, $rep=1, $priceratiovalue=10, $weights=0.333_0.333_0.334, $lambda=100, $a=1, $ctlg=1e5, $F=spr, $ttl=1000, $D=costprobprodcorr0.01, $xi=1.25, $R=lru, $csize=1e3, $pricebits=0, $mytime=1800"
attr mytime 1800
attr net geant_cost
attr network "networks.${net=geant_cost, abilene_cost}_network"
attr pricebits 0
attr priceratiovalue 10
attr processid 12343
attr rep 1
attr repetition 0
attr replication #0
attr resultdir results
attr runnumber 5
attr seedset 1
attr ttl 1000
attr weights 0.333_0.333_0.334
attr xi 1.25

scalar . 	a 	1
scalar . 	csize 	1e3
scalar . 	ctlg 	1e5
scalar . 	lambda 	100
scalar . 	mytime 	1800
scalar . 	pricebits 	0
scalar . 	priceratiovalue 	10
scalar . 	rep 	1
scalar . 	ttl 	1000
scalar . 	xi 	1.25
scalar geant_cost_network.content_distribution 	repo-0 	22
scalar geant_cost_network.content_distribution 	repo-1 	23
scalar geant_cost_network.content_distribution 	repo-2 	24
scalar geant_cost_network.content_distribution 	client-0 	20
scalar geant_cost_network.content_distribution 	client-1 	10
scalar geant_cost_network.content_distribution 	client-2 	12
scalar geant_cost_network.content_distribution 	client-3 	9
scalar geant_cost_network.content_distribution 	client-4 	5
scalar geant_cost_network.content_distribution 	repo-0_card 	33396
scalar geant_cost_network.content_distribution 	repo-1_card 	33039
scalar geant_cost_network.content_distribution 	repo-2_card 	33565
scalar geant_cost_network.statistics 	repo_popularity[0] 	0.28686251265602
scalar geant_cost_network.statistics 	repo_popularity[1] 	0.2886063426465
scalar geant_cost_network.statistics 	repo_popularity[2] 	0.42453114469748
scalar geant_cost_network.statistics 	stabilization_time 	36060
scalar geant_cost_network.node[7].face$o[4].channel 	price[7] 	0
scalar geant_cost_network.node[7].face$o[4].channel 	represented_price[7] 	0
scalar geant_cost_network.node[8].face$o[3].channel 	price[8] 	0
scalar geant_cost_network.node[8].face$o[3].channel 	represented_price[8] 	0
scalar geant_cost_network.node[21].face$o[5].channel 	price[21] 	0
scalar geant_cost_network.node[21].face$o[5].channel 	represented_price[21] 	0
scalar geant_cost_network.node[22].face$o[1].channel 	price[22] 	0
scalar geant_cost_network.node[22].face$o[1].channel 	represented_price[22] 	0
scalar geant_cost_network.node[23].face$o[1].channel 	price[23] 	1
scalar geant_cost_network.node[23].face$o[1].channel 	represented_price[23] 	1
scalar geant_cost_network.node[24].face$o[1].channel 	price[24] 	10
scalar geant_cost_network.node[24].face$o[1].channel 	represented_price[24] 	10
scalar geant_cost_network.statistics 	p_hit 	0.093691845872594
scalar geant_cost_network.statistics 	interests 	139048.6
scalar geant_cost_network.statistics 	data 	103035.24
scalar geant_cost_network.statistics 	hdistance 	3.5134931871198
scalar geant_cost_network.statistics 	avg_time 	0.005709904645
scalar geant_cost_network.statistics 	downloads 	895873
scalar geant_cost_network.statistics 	total_cost 	1730781
scalar geant_cost_network.statistics 	total_replicas 	100000
scalar geant_cost_network.statistics 	inner_hit 	0.36630080379697
scalar geant_cost_network.statistics 	interests_sent 	900331
scalar geant_cost_network.node[0].core_layer 	interests[0] 	0
scalar geant_cost_network.node[0].core_layer 	data[0] 	0
scalar geant_cost_network.node[0].core_layer 	repo_int[0] 	567714
scalar geant_cost_network.node[0].content_store 	p_hit[0] 	-nan
scalar geant_cost_network.node[0].content_store 	hits[0] 	0
scalar geant_cost_network.node[0].content_store 	misses[0] 	0
scalar geant_cost_network.node[0].content_store 	decision_yes[0] 	0
scalar geant_cost_network.node[0].content_store 	decision_no[0] 	0
scalar geant_cost_network.node[0].content_store 	decision_ratio[0] 	0
scalar geant_cost_network.node[0].content_store 	correction_factor[0] 	0.0015942725492031
scalar geant_cost_network.node[0].content_store 	xi[0] 	1.25
scalar geant_cost_network.node[1].core_layer 	interests[1] 	0
scalar geant_cost_network.node[1].core_layer 	data[1] 	0
scalar geant_cost_network.node[1].content_store 	p_hit[1] 	-nan
scalar geant_cost_network.node[1].content_store 	hits[1] 	0
scalar geant_cost_network.node[1].content_store 	misses[1] 	0
scalar geant_cost_network.node[1].content_store 	decision_yes[1] 	0
scalar geant_cost_network.node[1].content_store 	decision_no[1] 	0
scalar geant_cost_network.node[1].content_store 	decision_ratio[1] 	0
scalar geant_cost_network.node[1].content_store 	correction_factor[1] 	0.0015942725492031
scalar geant_cost_network.node[1].content_store 	xi[1] 	1.25
scalar geant_cost_network.node[2].core_layer 	interests[2] 	0
scalar geant_cost_network.node[2].core_layer 	data[2] 	0
scalar geant_cost_network.node[2].content_store 	p_hit[2] 	-nan
scalar geant_cost_network.node[2].content_store 	hits[2] 	0
scalar geant_cost_network.node[2].content_store 	misses[2] 	0
scalar geant_cost_network.node[2].content_store 	decision_yes[2] 	0
scalar geant_cost_network.node[2].content_store 	decision_no[2] 	0
scalar geant_cost_network.node[2].content_store 	decision_ratio[2] 	0
scalar geant_cost_network.node[2].content_store 	correction_factor[2] 	0.0015942725492031
scalar geant_cost_network.node[2].content_store 	xi[2] 	1.25
scalar geant_cost_network.node[3].core_layer 	interests[3] 	227493
scalar geant_cost_network.node[3].core_layer 	data[3] 	173736
scalar geant_cost_network.node[3].content_store 	p_hit[3] 	0.23629298483909
scalar geant_cost_network.node[3].content_store 	hits[3] 	53755
scalar geant_cost_network.node[3].content_store 	misses[3] 	173738
scalar geant_cost_network.node[3].content_store 	decision_yes[3] 	2574
scalar geant_cost_network.node[3].content_store 	decision_no[3] 	171162
scalar geant_cost_network.node[3].content_store 	decision_ratio[3] 	0.014815582262743
scalar geant_cost_network.node[3].content_store 	correction_factor[3] 	0.0015942725492031
scalar geant_cost_network.node[3].content_store 	xi[3] 	1.25
scalar geant_cost_network.node[4].core_layer 	interests[4] 	273185
scalar geant_cost_network.node[4].core_layer 	data[4] 	253666
scalar geant_cost_network.node[4].content_store 	p_hit[4] 	0.07121181616853
scalar geant_cost_network.node[4].content_store 	hits[4] 	19454
scalar geant_cost_network.node[4].content_store 	misses[4] 	253731
scalar geant_cost_network.node[4].content_store 	decision_yes[4] 	2534
scalar geant_cost_network.node[4].content_store 	decision_no[4] 	251132
scalar geant_cost_network.node[4].content_store 	decision_ratio[4] 	0.0099895137700756
scalar geant_cost_network.node[4].content_store 	correction_factor[4] 	0.0015942725492031
scalar geant_cost_network.node[4].content_store 	xi[4] 	1.25
scalar geant_cost_network.node[5].core_layer 	interests[5] 	179797
scalar geant_cost_network.node[5].core_layer 	data[5] 	164524
scalar geant_cost_network.node[5].content_store 	p_hit[5] 	0.074139168061759
scalar geant_cost_network.node[5].content_store 	hits[5] 	13330
scalar geant_cost_network.node[5].content_store 	misses[5] 	166467
scalar geant_cost_network.node[5].content_store 	decision_yes[5] 	942
scalar geant_cost_network.node[5].content_store 	decision_no[5] 	163582
scalar geant_cost_network.node[5].content_store 	decision_ratio[5] 	0.0057256084218716
scalar geant_cost_network.node[5].content_store 	correction_factor[5] 	0.0015942725492031
scalar geant_cost_network.node[5].content_store 	xi[5] 	1.25
scalar geant_cost_network.node[6].core_layer 	interests[6] 	97443
scalar geant_cost_network.node[6].core_layer 	data[6] 	92928
scalar geant_cost_network.node[6].content_store 	p_hit[6] 	0.046334780333118
scalar geant_cost_network.node[6].content_store 	hits[6] 	4515
scalar geant_cost_network.node[6].content_store 	misses[6] 	92928
scalar geant_cost_network.node[6].content_store 	decision_yes[6] 	43
scalar geant_cost_network.node[6].content_store 	decision_no[6] 	92885
scalar geant_cost_network.node[6].content_store 	decision_ratio[6] 	0.0004627238292011
scalar geant_cost_network.node[6].content_store 	correction_factor[6] 	0.0015942725492031
scalar geant_cost_network.node[6].content_store 	xi[6] 	1.25
scalar geant_cost_network.node[7].core_layer 	interests[7] 	342001
scalar geant_cost_network.node[7].core_layer 	data[7] 	327251
scalar geant_cost_network.node[7].content_store 	p_hit[7] 	0.043108061087541
scalar geant_cost_network.node[7].content_store 	hits[7] 	14743
scalar geant_cost_network.node[7].content_store 	misses[7] 	327258
scalar geant_cost_network.node[7].content_store 	decision_yes[7] 	89
scalar geant_cost_network.node[7].content_store 	decision_no[7] 	327162
scalar geant_cost_network.node[7].content_store 	decision_ratio[7] 	0.00027196249973262
scalar geant_cost_network.node[7].content_store 	correction_factor[7] 	0.0015942725492031
scalar geant_cost_network.node[7].content_store 	xi[7] 	1.25
scalar geant_cost_network.node[8].core_layer 	interests[8] 	296628
scalar geant_cost_network.node[8].core_layer 	data[8] 	256226
scalar geant_cost_network.node[8].content_store 	p_hit[8] 	0.1362042693205
scalar geant_cost_network.node[8].content_store 	hits[8] 	40402
scalar geant_cost_network.node[8].content_store 	misses[8] 	256226
scalar geant_cost_network.node[8].content_store 	decision_yes[8] 	235
scalar geant_cost_network.node[8].content_store 	decision_no[8] 	255991
scalar geant_cost_network.node[8].content_store 	decision_ratio[8] 	0.00091715907050807
scalar geant_cost_network.node[8].content_store 	correction_factor[8] 	0.0015942725492031
scalar geant_cost_network.node[8].content_store 	xi[8] 	1.25
scalar geant_cost_network.node[9].core_layer 	interests[9] 	405875
scalar geant_cost_network.node[9].core_layer 	data[9] 	369611
scalar geant_cost_network.node[9].content_store 	p_hit[9] 	0.084826609177702
scalar geant_cost_network.node[9].content_store 	hits[9] 	34429
scalar geant_cost_network.node[9].content_store 	misses[9] 	371446
scalar geant_cost_network.node[9].content_store 	decision_yes[9] 	1842
scalar geant_cost_network.node[9].content_store 	decision_no[9] 	367769
scalar geant_cost_network.node[9].content_store 	decision_ratio[9] 	0.0049836179118046
scalar geant_cost_network.node[9].content_store 	correction_factor[9] 	0.0015942725492031
scalar geant_cost_network.node[9].content_store 	xi[9] 	1.25
scalar geant_cost_network.node[10].core_layer 	interests[10] 	180099
scalar geant_cost_network.node[10].core_layer 	data[10] 	175463
scalar geant_cost_network.node[10].content_store 	p_hit[10] 	0.02036102365921
scalar geant_cost_network.node[10].content_store 	hits[10] 	3667
scalar geant_cost_network.node[10].content_store 	misses[10] 	176432
scalar geant_cost_network.node[10].content_store 	decision_yes[10] 	901
scalar geant_cost_network.node[10].content_store 	decision_no[10] 	174562
scalar geant_cost_network.node[10].content_store 	decision_ratio[10] 	0.0051349857234859
scalar geant_cost_network.node[10].content_store 	correction_factor[10] 	0.0015942725492031
scalar geant_cost_network.node[10].content_store 	xi[10] 	1.25
scalar geant_cost_network.node[11].core_layer 	interests[11] 	0
scalar geant_cost_network.node[11].core_layer 	data[11] 	0
scalar geant_cost_network.node[11].content_store 	p_hit[11] 	-nan
scalar geant_cost_network.node[11].content_store 	hits[11] 	0
scalar geant_cost_network.node[11].content_store 	misses[11] 	0
scalar geant_cost_network.node[11].content_store 	decision_yes[11] 	0
scalar geant_cost_network.node[11].content_store 	decision_no[11] 	0
scalar geant_cost_network.node[11].content_store 	decision_ratio[11] 	0
scalar geant_cost_network.node[11].content_store 	correction_factor[11] 	0.0015942725492031
scalar geant_cost_network.node[11].content_store 	xi[11] 	1.25
scalar geant_cost_network.node[12].core_layer 	interests[12] 	322819
scalar geant_cost_network.node[12].core_layer 	data[12] 	277962
scalar geant_cost_network.node[12].content_store 	p_hit[12] 	0.13383970584135
scalar geant_cost_network.node[12].content_store 	hits[12] 	43206
scalar geant_cost_network.node[12].content_store 	misses[12] 	279613
scalar geant_cost_network.node[12].content_store 	decision_yes[12] 	2577
scalar geant_cost_network.node[12].content_store 	decision_no[12] 	275385
scalar geant_cost_network.node[12].content_store 	decision_ratio[12] 	0.0092710514386859
scalar geant_cost_network.node[12].content_store 	correction_factor[12] 	0.0015942725492031
scalar geant_cost_network.node[12].content_store 	xi[12] 	1.25
scalar geant_cost_network.node[13].core_layer 	interests[13] 	0
scalar geant_cost_network.node[13].core_layer 	data[13] 	0
scalar geant_cost_network.node[13].content_store 	p_hit[13] 	-nan
scalar geant_cost_network.node[13].content_store 	hits[13] 	0
scalar geant_cost_network.node[13].content_store 	misses[13] 	0
scalar geant_cost_network.node[13].content_store 	decision_yes[13] 	0
scalar geant_cost_network.node[13].content_store 	decision_no[13] 	0
scalar geant_cost_network.node[13].content_store 	decision_ratio[13] 	0
scalar geant_cost_network.node[13].content_store 	correction_factor[13] 	0.0015942725492031
scalar geant_cost_network.node[13].content_store 	xi[13] 	1.25
scalar geant_cost_network.node[14].core_layer 	interests[14] 	67082
scalar geant_cost_network.node[14].core_layer 	data[14] 	59925
scalar geant_cost_network.node[14].content_store 	p_hit[14] 	0.10669031931069
scalar geant_cost_network.node[14].content_store 	hits[14] 	7157
scalar geant_cost_network.node[14].content_store 	misses[14] 	59925
scalar geant_cost_network.node[14].content_store 	decision_yes[14] 	940
scalar geant_cost_network.node[14].content_store 	decision_no[14] 	58985
scalar geant_cost_network.node[14].content_store 	decision_ratio[14] 	0.015686274509804
scalar geant_cost_network.node[14].content_store 	correction_factor[14] 	0.0015942725492031
scalar geant_cost_network.node[14].content_store 	xi[14] 	1.25
scalar geant_cost_network.node[15].core_layer 	interests[15] 	0
scalar geant_cost_network.node[15].core_layer 	data[15] 	0
scalar geant_cost_network.node[15].content_store 	p_hit[15] 	-nan
scalar geant_cost_network.node[15].content_store 	hits[15] 	0
scalar geant_cost_network.node[15].content_store 	misses[15] 	0
scalar geant_cost_network.node[15].content_store 	decision_yes[15] 	0
scalar geant_cost_network.node[15].content_store 	decision_no[15] 	0
scalar geant_cost_network.node[15].content_store 	decision_ratio[15] 	0
scalar geant_cost_network.node[15].content_store 	correction_factor[15] 	0.0015942725492031
scalar geant_cost_network.node[15].content_store 	xi[15] 	1.25
scalar geant_cost_network.node[16].core_layer 	interests[16] 	0
scalar geant_cost_network.node[16].core_layer 	data[16] 	0
scalar geant_cost_network.node[16].content_store 	p_hit[16] 	-nan
scalar geant_cost_network.node[16].content_store 	hits[16] 	0
scalar geant_cost_network.node[16].content_store 	misses[16] 	0
scalar geant_cost_network.node[16].content_store 	decision_yes[16] 	0
scalar geant_cost_network.node[16].content_store 	decision_no[16] 	0
scalar geant_cost_network.node[16].content_store 	decision_ratio[16] 	0
scalar geant_cost_network.node[16].content_store 	correction_factor[16] 	0.0015942725492031
scalar geant_cost_network.node[16].content_store 	xi[16] 	1.25
scalar geant_cost_network.node[17].core_layer 	interests[17] 	0
scalar geant_cost_network.node[17].core_layer 	data[17] 	0
scalar geant_cost_network.node[17].content_store 	p_hit[17] 	-nan
scalar geant_cost_network.node[17].content_store 	hits[17] 	0
scalar geant_cost_network.node[17].content_store 	misses[17] 	0
scalar geant_cost_network.node[17].content_store 	decision_yes[17] 	0
scalar geant_cost_network.node[17].content_store 	decision_no[17] 	0
scalar geant_cost_network.node[17].content_store 	decision_ratio[17] 	0
scalar geant_cost_network.node[17].content_store 	correction_factor[17] 	0.0015942725492031
scalar geant_cost_network.node[17].content_store 	xi[17] 	1.25
scalar geant_cost_network.node[18].core_layer 	interests[18] 	103392
scalar geant_cost_network.node[18].core_layer 	data[18] 	99447
scalar geant_cost_network.node[18].content_store 	p_hit[18] 	0.038155756731662
scalar geant_cost_network.node[18].content_store 	hits[18] 	3945
scalar geant_cost_network.node[18].content_store 	misses[18] 	99447
scalar geant_cost_network.node[18].content_store 	decision_yes[18] 	48
scalar geant_cost_network.node[18].content_store 	decision_no[18] 	99399
scalar geant_cost_network.node[18].content_store 	decision_ratio[18] 	0.00048266916045733
scalar geant_cost_network.node[18].content_store 	correction_factor[18] 	0.0015942725492031
scalar geant_cost_network.node[18].content_store 	xi[18] 	1.25
scalar geant_cost_network.node[19].core_layer 	interests[19] 	0
scalar geant_cost_network.node[19].core_layer 	data[19] 	0
scalar geant_cost_network.node[19].content_store 	p_hit[19] 	-nan
scalar geant_cost_network.node[19].content_store 	hits[19] 	0
scalar geant_cost_network.node[19].content_store 	misses[19] 	0
scalar geant_cost_network.node[19].content_store 	decision_yes[19] 	0
scalar geant_cost_network.node[19].content_store 	decision_no[19] 	0
scalar geant_cost_network.node[19].content_store 	decision_ratio[19] 	0
scalar geant_cost_network.node[19].content_store 	correction_factor[19] 	0.0015942725492031
scalar geant_cost_network.node[19].content_store 	xi[19] 	1.25
scalar geant_cost_network.node[20].core_layer 	interests[20] 	180808
scalar geant_cost_network.node[20].core_layer 	data[20] 	167346
scalar geant_cost_network.node[20].content_store 	p_hit[20] 	0.071938188575727
scalar geant_cost_network.node[20].content_store 	hits[20] 	13007
scalar geant_cost_network.node[20].content_store 	misses[20] 	167801
scalar geant_cost_network.node[20].content_store 	decision_yes[20] 	993
scalar geant_cost_network.node[20].content_store 	decision_no[20] 	166353
scalar geant_cost_network.node[20].content_store 	decision_ratio[20] 	0.0059338137750529
scalar geant_cost_network.node[20].content_store 	correction_factor[20] 	0.0015942725492031
scalar geant_cost_network.node[20].content_store 	xi[20] 	1.25
scalar geant_cost_network.node[21].core_layer 	interests[21] 	231879
scalar geant_cost_network.node[21].core_layer 	data[21] 	157796
scalar geant_cost_network.node[21].content_store 	p_hit[21] 	0.31948990637358
scalar geant_cost_network.node[21].content_store 	hits[21] 	74083
scalar geant_cost_network.node[21].content_store 	misses[21] 	157796
scalar geant_cost_network.node[21].content_store 	decision_yes[21] 	4462
scalar geant_cost_network.node[21].content_store 	decision_no[21] 	153334
scalar geant_cost_network.node[21].content_store 	decision_ratio[21] 	0.028277015893939
scalar geant_cost_network.node[21].content_store 	correction_factor[21] 	0.0015942725492031
scalar geant_cost_network.node[21].content_store 	xi[21] 	1.25
scalar geant_cost_network.node[22].core_layer 	interests[22] 	257097
scalar geant_cost_network.node[22].core_layer 	repo_load[22] 	257097
scalar geant_cost_network.node[22].core_layer 	data[22] 	0
scalar geant_cost_network.node[22].content_store 	p_hit[22] 	0
scalar geant_cost_network.node[22].content_store 	hits[22] 	0
scalar geant_cost_network.node[22].content_store 	misses[22] 	257097
scalar geant_cost_network.node[22].content_store 	decision_yes[22] 	0
scalar geant_cost_network.node[22].content_store 	decision_no[22] 	257097
scalar geant_cost_network.node[22].content_store 	decision_ratio[22] 	0
scalar geant_cost_network.node[23].core_layer 	interests[23] 	152821
scalar geant_cost_network.node[23].core_layer 	repo_load[23] 	152821
scalar geant_cost_network.node[23].core_layer 	data[23] 	0
scalar geant_cost_network.node[23].content_store 	p_hit[23] 	0
scalar geant_cost_network.node[23].content_store 	hits[23] 	0
scalar geant_cost_network.node[23].content_store 	misses[23] 	152821
scalar geant_cost_network.node[23].content_store 	decision_yes[23] 	0
scalar geant_cost_network.node[23].content_store 	decision_no[23] 	152821
scalar geant_cost_network.node[23].content_store 	decision_ratio[23] 	0
scalar geant_cost_network.node[24].core_layer 	interests[24] 	157796
scalar geant_cost_network.node[24].core_layer 	repo_load[24] 	157796
scalar geant_cost_network.node[24].core_layer 	data[24] 	0
scalar geant_cost_network.node[24].content_store 	p_hit[24] 	0
scalar geant_cost_network.node[24].content_store 	hits[24] 	0
scalar geant_cost_network.node[24].content_store 	misses[24] 	157796
scalar geant_cost_network.node[24].content_store 	decision_yes[24] 	0
scalar geant_cost_network.node[24].content_store 	decision_no[24] 	157796
scalar geant_cost_network.node[24].content_store 	decision_ratio[24] 	0
scalar geant_cost_network.client[5] 	hdistance[5] 	3.2286425944876
scalar geant_cost_network.client[5] 	downloads[5] 	177854
scalar geant_cost_network.client[5] 	avg_time[5] 	0.009509192523
scalar geant_cost_network.client[5] 	interests_sent[5] 	179797
scalar geant_cost_network.client[9] 	hdistance[9] 	3.2473551243942
scalar geant_cost_network.client[9] 	downloads[9] 	179309
scalar geant_cost_network.client[9] 	avg_time[9] 	0.00351220491
scalar geant_cost_network.client[9] 	interests_sent[9] 	179943
scalar geant_cost_network.client[10] 	hdistance[10] 	4.1830011723331
scalar geant_cost_network.client[10] 	downloads[10] 	179130
scalar geant_cost_network.client[10] 	avg_time[10] 	0.005399720796
scalar geant_cost_network.client[10] 	interests_sent[10] 	180099
scalar geant_cost_network.client[12] 	hdistance[12] 	3.4438337973631
scalar geant_cost_network.client[12] 	downloads[12] 	179227
scalar geant_cost_network.client[12] 	avg_time[12] 	0.004114667175
scalar geant_cost_network.client[12] 	interests_sent[12] 	179684
scalar geant_cost_network.client[20] 	hdistance[20] 	3.4646332470211
scalar geant_cost_network.client[20] 	downloads[20] 	180353
scalar geant_cost_network.client[20] 	avg_time[20] 	0.006013737825
scalar geant_cost_network.client[20] 	interests_sent[20] 	180808
