version 2
run General-2-20150803-13:05:42-12737
attr C 1e4
attr D lce
attr F spr
attr R lru_repr
attr a 1
attr brates 0.3_0.7_1.5_2.5_3.5
attr configname General
attr ctlg 1e6
attr datetime 20150803-13:05:42
attr experiment General
attr inifile omnetpp.ini
attr iterationvars "$net=abilene_nodelay, $rep=0, $lambda=100, $a=1, $ctlg=1e6, $brates=0.3_0.7_1.5_2.5_3.5, $F=spr, $ttl=1000, $D=lce, $R=lru_repr, $proactiveprob=0.01, $C=1e4, $window=60, $variance=0.05, $mytime=1800001"
attr iterationvars2 "$net=abilene_nodelay, $rep=0, $lambda=100, $a=1, $ctlg=1e6, $brates=0.3_0.7_1.5_2.5_3.5, $F=spr, $ttl=1000, $D=lce, $R=lru_repr, $proactiveprob=0.01, $C=1e4, $window=60, $variance=0.05, $mytime=1800001, $repetition=0"
attr lambda 100
attr measurement "$net=abilene_nodelay, $rep=0, $lambda=100, $a=1, $ctlg=1e6, $brates=0.3_0.7_1.5_2.5_3.5, $F=spr, $ttl=1000, $D=lce, $R=lru_repr, $proactiveprob=0.01, $C=1e4, $window=60, $variance=0.05, $mytime=1800001"
attr mytime 1800001
attr net abilene_nodelay
attr network networks.${net=abilene_nodelay}_network
attr proactiveprob 0.01
attr processid 12737
attr rep 0
attr repetition 0
attr replication #0
attr resultdir results
attr runnumber 2
attr seedset 0
attr ttl 1000
attr variance 0.05
attr window 60

scalar . 	C 	1e4
scalar . 	a 	1
scalar . 	ctlg 	1e6
scalar . 	lambda 	100
scalar . 	mytime 	1800001
scalar . 	proactiveprob 	0.01
scalar . 	rep 	0
scalar . 	ttl 	1000
scalar . 	variance 	0.05
scalar . 	window 	60
scalar abilene_nodelay_network.content_distribution 	repo-0 	5
scalar abilene_nodelay_network.content_distribution 	repo-1 	8
scalar abilene_nodelay_network.content_distribution 	repo-2 	9
scalar abilene_nodelay_network.content_distribution 	repo-3 	0
scalar abilene_nodelay_network.content_distribution 	repo-4 	1
scalar abilene_nodelay_network.content_distribution 	repo-5 	7
scalar abilene_nodelay_network.content_distribution 	repo-6 	6
scalar abilene_nodelay_network.content_distribution 	repo-7 	2
scalar abilene_nodelay_network.content_distribution 	repo-8 	4
scalar abilene_nodelay_network.content_distribution 	repo-9 	10
scalar abilene_nodelay_network.content_distribution 	repo-10 	3
scalar abilene_nodelay_network.content_distribution 	client-0 	10
scalar abilene_nodelay_network.content_distribution 	client-1 	9
scalar abilene_nodelay_network.content_distribution 	client-2 	8
scalar abilene_nodelay_network.content_distribution 	client-3 	7
scalar abilene_nodelay_network.content_distribution 	client-4 	3
scalar abilene_nodelay_network.content_distribution 	client-5 	6
scalar abilene_nodelay_network.content_distribution 	client-6 	5
scalar abilene_nodelay_network.content_distribution 	client-7 	1
scalar abilene_nodelay_network.content_distribution 	client-8 	4
scalar abilene_nodelay_network.content_distribution 	client-9 	0
scalar abilene_nodelay_network.content_distribution 	client-10 	2
scalar abilene_nodelay_network.content_distribution 	repo-0_card 	90891
scalar abilene_nodelay_network.content_distribution 	repo-0_price 	0
scalar abilene_nodelay_network.content_distribution 	repo-1_card 	90362
scalar abilene_nodelay_network.content_distribution 	repo-1_price 	0
scalar abilene_nodelay_network.content_distribution 	repo-2_card 	90927
scalar abilene_nodelay_network.content_distribution 	repo-2_price 	0
scalar abilene_nodelay_network.content_distribution 	repo-3_card 	91098
scalar abilene_nodelay_network.content_distribution 	repo-3_price 	0
scalar abilene_nodelay_network.content_distribution 	repo-4_card 	91231
scalar abilene_nodelay_network.content_distribution 	repo-4_price 	0
scalar abilene_nodelay_network.content_distribution 	repo-5_card 	90932
scalar abilene_nodelay_network.content_distribution 	repo-5_price 	0
scalar abilene_nodelay_network.content_distribution 	repo-6_card 	90752
scalar abilene_nodelay_network.content_distribution 	repo-6_price 	0
scalar abilene_nodelay_network.content_distribution 	repo-7_card 	90980
scalar abilene_nodelay_network.content_distribution 	repo-7_price 	0
scalar abilene_nodelay_network.content_distribution 	repo-8_card 	90629
scalar abilene_nodelay_network.content_distribution 	repo-8_price 	0
scalar abilene_nodelay_network.content_distribution 	repo-9_card 	91219
scalar abilene_nodelay_network.content_distribution 	repo-9_price 	0
scalar abilene_nodelay_network.content_distribution 	repo-10_card 	90979
scalar abilene_nodelay_network.content_distribution 	repo-10_price 	0
scalar abilene_nodelay_network.statistics 	stabilization_time 	36060
scalar abilene_nodelay_network.statistics 	p_hit 	0.50701705683102
scalar abilene_nodelay_network.statistics 	interests 	264264025
scalar abilene_nodelay_network.statistics 	data 	83543730.090909
scalar abilene_nodelay_network.statistics 	hdistance 	0.71236140063667
scalar abilene_nodelay_network.statistics 	avg_time 	0
scalar abilene_nodelay_network.statistics 	downloads 	1979990700
scalar abilene_nodelay_network.statistics 	total_cost 	0
scalar abilene_nodelay_network.statistics 	total_replicas 	1000000
scalar abilene_nodelay_network.statistics 	"representations_downloaded 0.532011:0.0586123:0.0361917:0.0297041:0.343481:" 	0
scalar abilene_nodelay_network.statistics 	"slots_per_representation 100:233:500:833:1167:" 	0
scalar abilene_nodelay_network.statistics 	inner_hit 	0.74036585424366
scalar abilene_nodelay_network.statistics 	execution_time 	54510
scalar abilene_nodelay_network.node[0].core_layer 	interests[0] 	207912880
scalar abilene_nodelay_network.node[0].core_layer 	repo_load[0] 	40771774
scalar abilene_nodelay_network.node[0].core_layer 	data[0] 	38898182
scalar abilene_nodelay_network.node[0].core_layer 	slots_sent[face$o[1]->client[0]] 	98721980996
scalar abilene_nodelay_network.node[0].core_layer 	slots_sent[face$o[2]->node[1]] 	2182597719
scalar abilene_nodelay_network.node[0].core_layer 	slots_sent[face$o[3]->node[10]] 	717245826
scalar abilene_nodelay_network.node[0].content_store 	p_hit[0] 	0.61681086809052
scalar abilene_nodelay_network.node[0].content_store 	hits[0] 	128242924
scalar abilene_nodelay_network.node[0].content_store 	misses[0] 	79669956
scalar abilene_nodelay_network.node[0].content_store 	decision_yes[0] 	38898182
scalar abilene_nodelay_network.node[0].content_store 	decision_no[0] 	40771774
scalar abilene_nodelay_network.node[0].content_store 	decision_ratio[0] 	0.48824153988487
scalar abilene_nodelay_network.node[0].content_store 	"representation_breakdown[0] 105174:1940:357:156:336:" 	0
scalar abilene_nodelay_network.node[0].proactive_component 	hdistance[0].proactive_component 	3.2850055181602
scalar abilene_nodelay_network.node[0].proactive_component 	downloads[0].proactive_component 	603462
scalar abilene_nodelay_network.node[0].proactive_component 	avg_time[0].proactive_component 	0
scalar abilene_nodelay_network.node[1].core_layer 	interests[1] 	292215798
scalar abilene_nodelay_network.node[1].core_layer 	repo_load[1] 	50970827
scalar abilene_nodelay_network.node[1].core_layer 	data[1] 	106628144
scalar abilene_nodelay_network.node[1].core_layer 	slots_sent[face$o[1]->client[1]] 	86451631479
scalar abilene_nodelay_network.node[1].core_layer 	slots_sent[face$o[2]->node[0]] 	3411349327
scalar abilene_nodelay_network.node[1].core_layer 	slots_sent[face$o[3]->node[10]] 	2595978221
scalar abilene_nodelay_network.node[1].core_layer 	slots_sent[face$o[4]->node[2]] 	6095056854
scalar abilene_nodelay_network.node[1].content_store 	p_hit[1] 	0.4606760754256
scalar abilene_nodelay_network.node[1].content_store 	hits[1] 	134616827
scalar abilene_nodelay_network.node[1].content_store 	misses[1] 	157598971
scalar abilene_nodelay_network.node[1].content_store 	decision_yes[1] 	106628144
scalar abilene_nodelay_network.node[1].content_store 	decision_no[1] 	50970827
scalar abilene_nodelay_network.node[1].content_store 	decision_ratio[1] 	0.67657893527744
scalar abilene_nodelay_network.node[1].content_store 	"representation_breakdown[1] 105407:1970:383:160:296:" 	0
scalar abilene_nodelay_network.node[1].proactive_component 	hdistance[1].proactive_component 	2.8163527504054
scalar abilene_nodelay_network.node[1].proactive_component 	downloads[1].proactive_component 	801700
scalar abilene_nodelay_network.node[1].proactive_component 	avg_time[1].proactive_component 	0
scalar abilene_nodelay_network.node[2].core_layer 	interests[2] 	356655326
scalar abilene_nodelay_network.node[2].core_layer 	repo_load[2] 	55495904
scalar abilene_nodelay_network.node[2].core_layer 	data[2] 	160533438
scalar abilene_nodelay_network.node[2].core_layer 	slots_sent[face$o[1]->client[2]] 	85083782861
scalar abilene_nodelay_network.node[2].core_layer 	slots_sent[face$o[2]->node[1]] 	7195469590
scalar abilene_nodelay_network.node[2].core_layer 	slots_sent[face$o[3]->node[3]] 	8368245466
scalar abilene_nodelay_network.node[2].core_layer 	slots_sent[face$o[4]->node[8]] 	3621612497
scalar abilene_nodelay_network.node[2].content_store 	p_hit[2] 	0.3942909967928
scalar abilene_nodelay_network.node[2].content_store 	hits[2] 	140625984
scalar abilene_nodelay_network.node[2].content_store 	misses[2] 	216029342
scalar abilene_nodelay_network.node[2].content_store 	decision_yes[2] 	160533438
scalar abilene_nodelay_network.node[2].content_store 	decision_no[2] 	55495904
scalar abilene_nodelay_network.node[2].content_store 	decision_ratio[2] 	0.74310941520157
scalar abilene_nodelay_network.node[2].content_store 	"representation_breakdown[2] 105626:1924:397:155:284:" 	0
scalar abilene_nodelay_network.node[2].proactive_component 	hdistance[2].proactive_component 	2.6372320791793
scalar abilene_nodelay_network.node[2].proactive_component 	downloads[2].proactive_component 	870733
scalar abilene_nodelay_network.node[2].proactive_component 	avg_time[2].proactive_component 	0
scalar abilene_nodelay_network.node[3].core_layer 	interests[3] 	341603318
scalar abilene_nodelay_network.node[3].core_layer 	repo_load[3] 	48033305
scalar abilene_nodelay_network.node[3].core_layer 	data[3] 	147524459
scalar abilene_nodelay_network.node[3].core_layer 	slots_sent[face$o[1]->client[3]] 	89678219227
scalar abilene_nodelay_network.node[3].core_layer 	slots_sent[face$o[2]->node[2]] 	8163275926
scalar abilene_nodelay_network.node[3].core_layer 	slots_sent[face$o[3]->node[4]] 	5396625313
scalar abilene_nodelay_network.node[3].core_layer 	slots_sent[face$o[4]->node[7]] 	3974231273
scalar abilene_nodelay_network.node[3].content_store 	p_hit[3] 	0.42752967054026
scalar abilene_nodelay_network.node[3].content_store 	hits[3] 	146045554
scalar abilene_nodelay_network.node[3].content_store 	misses[3] 	195557764
scalar abilene_nodelay_network.node[3].content_store 	decision_yes[3] 	147524459
scalar abilene_nodelay_network.node[3].content_store 	decision_no[3] 	48033305
scalar abilene_nodelay_network.node[3].content_store 	decision_ratio[3] 	0.75437791874119
scalar abilene_nodelay_network.node[3].content_store 	"representation_breakdown[3] 105899:1933:384:157:263:" 	0
scalar abilene_nodelay_network.node[3].proactive_component 	hdistance[3].proactive_component 	2.6765046139996
scalar abilene_nodelay_network.node[3].proactive_component 	downloads[3].proactive_component 	888600
scalar abilene_nodelay_network.node[3].proactive_component 	avg_time[3].proactive_component 	0
scalar abilene_nodelay_network.node[4].core_layer 	interests[4] 	246678445
scalar abilene_nodelay_network.node[4].core_layer 	repo_load[4] 	43016647
scalar abilene_nodelay_network.node[4].core_layer 	data[4] 	69003687
scalar abilene_nodelay_network.node[4].core_layer 	slots_sent[face$o[1]->client[4]] 	94558853255
scalar abilene_nodelay_network.node[4].core_layer 	slots_sent[face$o[2]->node[3]] 	4221838756
scalar abilene_nodelay_network.node[4].core_layer 	slots_sent[face$o[3]->node[5]] 	2923680898
scalar abilene_nodelay_network.node[4].content_store 	p_hit[4] 	0.54588519479276
scalar abilene_nodelay_network.node[4].content_store 	hits[4] 	134658111
scalar abilene_nodelay_network.node[4].content_store 	misses[4] 	112020334
scalar abilene_nodelay_network.node[4].content_store 	decision_yes[4] 	69003687
scalar abilene_nodelay_network.node[4].content_store 	decision_no[4] 	43016647
scalar abilene_nodelay_network.node[4].content_store 	decision_ratio[4] 	0.61599251257365
scalar abilene_nodelay_network.node[4].content_store 	"representation_breakdown[4] 105865:1946:349:149:284:" 	0
scalar abilene_nodelay_network.node[4].proactive_component 	hdistance[4].proactive_component 	2.9829995621606
scalar abilene_nodelay_network.node[4].proactive_component 	downloads[4].proactive_component 	717158
scalar abilene_nodelay_network.node[4].proactive_component 	avg_time[4].proactive_component 	0
scalar abilene_nodelay_network.node[5].core_layer 	interests[5] 	215263733
scalar abilene_nodelay_network.node[5].core_layer 	repo_load[5] 	51774727
scalar abilene_nodelay_network.node[5].core_layer 	data[5] 	45514982
scalar abilene_nodelay_network.node[5].core_layer 	slots_sent[face$o[1]->client[5]] 	85066066365
scalar abilene_nodelay_network.node[5].core_layer 	slots_sent[face$o[2]->node[4]] 	2096468954
scalar abilene_nodelay_network.node[5].core_layer 	slots_sent[face$o[3]->node[6]] 	1643352930
scalar abilene_nodelay_network.node[5].content_store 	p_hit[5] 	0.54804412408847
scalar abilene_nodelay_network.node[5].content_store 	hits[5] 	117974024
scalar abilene_nodelay_network.node[5].content_store 	misses[5] 	97289709
scalar abilene_nodelay_network.node[5].content_store 	decision_yes[5] 	45514982
scalar abilene_nodelay_network.node[5].content_store 	decision_no[5] 	51774727
scalar abilene_nodelay_network.node[5].content_store 	decision_ratio[5] 	0.46782935695696
scalar abilene_nodelay_network.node[5].content_store 	"representation_breakdown[5] 105732:1785:393:171:293:" 	0
scalar abilene_nodelay_network.node[5].proactive_component 	hdistance[5].proactive_component 	3.2106988270489
scalar abilene_nodelay_network.node[5].proactive_component 	downloads[5].proactive_component 	629097
scalar abilene_nodelay_network.node[5].proactive_component 	avg_time[5].proactive_component 	0
scalar abilene_nodelay_network.node[6].core_layer 	interests[6] 	229734848
scalar abilene_nodelay_network.node[6].core_layer 	repo_load[6] 	40406261
scalar abilene_nodelay_network.node[6].core_layer 	data[6] 	57543422
scalar abilene_nodelay_network.node[6].core_layer 	slots_sent[face$o[1]->client[6]] 	97133095488
scalar abilene_nodelay_network.node[6].core_layer 	slots_sent[face$o[2]->node[5]] 	2025346406
scalar abilene_nodelay_network.node[6].core_layer 	slots_sent[face$o[3]->node[7]] 	3281292647
scalar abilene_nodelay_network.node[6].content_store 	p_hit[6] 	0.57364029074074
scalar abilene_nodelay_network.node[6].content_store 	hits[6] 	131785165
scalar abilene_nodelay_network.node[6].content_store 	misses[6] 	97949683
scalar abilene_nodelay_network.node[6].content_store 	decision_yes[6] 	57543422
scalar abilene_nodelay_network.node[6].content_store 	decision_no[6] 	40406261
scalar abilene_nodelay_network.node[6].content_store 	decision_ratio[6] 	0.58747941021922
scalar abilene_nodelay_network.node[6].content_store 	"representation_breakdown[6] 105470:1873:403:176:290:" 	0
scalar abilene_nodelay_network.node[6].proactive_component 	hdistance[6].proactive_component 	3.0107289389697
scalar abilene_nodelay_network.node[6].proactive_component 	downloads[6].proactive_component 	658313
scalar abilene_nodelay_network.node[6].proactive_component 	avg_time[6].proactive_component 	0
scalar abilene_nodelay_network.node[7].core_layer 	interests[7] 	282164461
scalar abilene_nodelay_network.node[7].core_layer 	repo_load[7] 	46393612
scalar abilene_nodelay_network.node[7].core_layer 	data[7] 	94583863
scalar abilene_nodelay_network.node[7].core_layer 	slots_sent[face$o[1]->client[7]] 	95154612526
scalar abilene_nodelay_network.node[7].core_layer 	slots_sent[face$o[2]->node[3]] 	3377605006
scalar abilene_nodelay_network.node[7].core_layer 	slots_sent[face$o[3]->node[6]] 	4628376752
scalar abilene_nodelay_network.node[7].core_layer 	slots_sent[face$o[4]->node[8]] 	3025861477
scalar abilene_nodelay_network.node[7].content_store 	p_hit[7] 	0.50037125688908
scalar abilene_nodelay_network.node[7].content_store 	hits[7] 	141186986
scalar abilene_nodelay_network.node[7].content_store 	misses[7] 	140977475
scalar abilene_nodelay_network.node[7].content_store 	decision_yes[7] 	94583863
scalar abilene_nodelay_network.node[7].content_store 	decision_no[7] 	46393612
scalar abilene_nodelay_network.node[7].content_store 	decision_ratio[7] 	0.67091471882299
scalar abilene_nodelay_network.node[7].content_store 	"representation_breakdown[7] 105245:1949:406:166:300:" 	0
scalar abilene_nodelay_network.node[7].proactive_component 	hdistance[7].proactive_component 	2.6566669908329
scalar abilene_nodelay_network.node[7].proactive_component 	downloads[7].proactive_component 	781492
scalar abilene_nodelay_network.node[7].proactive_component 	avg_time[7].proactive_component 	0
scalar abilene_nodelay_network.node[8].core_layer 	interests[8] 	275854146
scalar abilene_nodelay_network.node[8].core_layer 	repo_load[8] 	45296912
scalar abilene_nodelay_network.node[8].core_layer 	data[8] 	89141995
scalar abilene_nodelay_network.node[8].core_layer 	slots_sent[face$o[1]->client[8]] 	94680263155
scalar abilene_nodelay_network.node[8].core_layer 	slots_sent[face$o[2]->node[2]] 	3134182067
scalar abilene_nodelay_network.node[8].core_layer 	slots_sent[face$o[3]->node[7]] 	3035981299
scalar abilene_nodelay_network.node[8].core_layer 	slots_sent[face$o[4]->node[9]] 	4162163175
scalar abilene_nodelay_network.node[8].content_store 	p_hit[8] 	0.51264496492288
scalar abilene_nodelay_network.node[8].content_store 	hits[8] 	141415239
scalar abilene_nodelay_network.node[8].content_store 	misses[8] 	134438907
scalar abilene_nodelay_network.node[8].content_store 	decision_yes[8] 	89141995
scalar abilene_nodelay_network.node[8].content_store 	decision_no[8] 	45296912
scalar abilene_nodelay_network.node[8].content_store 	decision_ratio[8] 	0.66306694236959
scalar abilene_nodelay_network.node[8].content_store 	"representation_breakdown[8] 105321:1959:384:191:283:" 	0
scalar abilene_nodelay_network.node[8].proactive_component 	hdistance[8].proactive_component 	2.5643833093903
scalar abilene_nodelay_network.node[8].proactive_component 	downloads[8].proactive_component 	792853
scalar abilene_nodelay_network.node[8].proactive_component 	avg_time[8].proactive_component 	0
scalar abilene_nodelay_network.node[9].core_layer 	interests[9] 	230491906
scalar abilene_nodelay_network.node[9].core_layer 	repo_load[9] 	42511855
scalar abilene_nodelay_network.node[9].core_layer 	data[9] 	57788367
scalar abilene_nodelay_network.node[9].core_layer 	slots_sent[face$o[1]->client[9]] 	94225405894
scalar abilene_nodelay_network.node[9].core_layer 	slots_sent[face$o[2]->node[10]] 	2316992399
scalar abilene_nodelay_network.node[9].core_layer 	slots_sent[face$o[3]->node[8]] 	3061499744
scalar abilene_nodelay_network.node[9].content_store 	p_hit[9] 	0.56484275851318
scalar abilene_nodelay_network.node[9].content_store 	hits[9] 	130191684
scalar abilene_nodelay_network.node[9].content_store 	misses[9] 	100300222
scalar abilene_nodelay_network.node[9].content_store 	decision_yes[9] 	57788367
scalar abilene_nodelay_network.node[9].content_store 	decision_no[9] 	42511855
scalar abilene_nodelay_network.node[9].content_store 	decision_ratio[9] 	0.57615392915082
scalar abilene_nodelay_network.node[9].content_store 	"representation_breakdown[9] 105793:1863:361:161:293:" 	0
scalar abilene_nodelay_network.node[9].proactive_component 	hdistance[9].proactive_component 	2.868584900318
scalar abilene_nodelay_network.node[9].proactive_component 	downloads[9].proactive_component 	671034
scalar abilene_nodelay_network.node[9].proactive_component 	avg_time[9].proactive_component 	0
scalar abilene_nodelay_network.node[10].core_layer 	interests[10] 	228329414
scalar abilene_nodelay_network.node[10].core_layer 	repo_load[10] 	49401370
scalar abilene_nodelay_network.node[10].core_layer 	data[10] 	51820492
scalar abilene_nodelay_network.node[10].core_layer 	slots_sent[face$o[1]->client[10]] 	90108651171
scalar abilene_nodelay_network.node[10].core_layer 	slots_sent[face$o[2]->node[0]] 	836280792
scalar abilene_nodelay_network.node[10].core_layer 	slots_sent[face$o[3]->node[1]] 	2193423781
scalar abilene_nodelay_network.node[10].core_layer 	slots_sent[face$o[4]->node[9]] 	2106871713
scalar abilene_nodelay_network.node[10].content_store 	p_hit[10] 	0.5566849656961
scalar abilene_nodelay_network.node[10].content_store 	hits[10] 	127107552
scalar abilene_nodelay_network.node[10].content_store 	misses[10] 	101221862
scalar abilene_nodelay_network.node[10].content_store 	decision_yes[10] 	51820492
scalar abilene_nodelay_network.node[10].content_store 	decision_no[10] 	49401370
scalar abilene_nodelay_network.node[10].content_store 	decision_ratio[10] 	0.51194960234974
scalar abilene_nodelay_network.node[10].content_store 	"representation_breakdown[10] 105657:1890:338:150:317:" 	0
scalar abilene_nodelay_network.node[10].proactive_component 	hdistance[10].proactive_component 	2.8722441266704
scalar abilene_nodelay_network.node[10].proactive_component 	downloads[10].proactive_component 	678959
scalar abilene_nodelay_network.node[10].proactive_component 	avg_time[10].proactive_component 	0
scalar abilene_nodelay_network.client[0] 	hdistance[0].real 	0.74187990543355
scalar abilene_nodelay_network.client[0] 	downloads[0].real 	179996703
scalar abilene_nodelay_network.client[0] 	avg_time[0].real 	0
scalar abilene_nodelay_network.client[1] 	hdistance[1].real 	0.74086573819003
scalar abilene_nodelay_network.client[1] 	downloads[1].real 	180004858
scalar abilene_nodelay_network.client[1] 	avg_time[1].real 	0
scalar abilene_nodelay_network.client[2] 	hdistance[2].real 	0.69698661682994
scalar abilene_nodelay_network.client[2] 	downloads[2].real 	180023339
scalar abilene_nodelay_network.client[2] 	avg_time[2].real 	0
scalar abilene_nodelay_network.client[3] 	hdistance[3].real 	0.67374369065094
scalar abilene_nodelay_network.client[3] 	downloads[3].real 	179995198
scalar abilene_nodelay_network.client[3] 	avg_time[3].real 	0
scalar abilene_nodelay_network.client[4] 	hdistance[4].real 	0.73066543767619
scalar abilene_nodelay_network.client[4] 	downloads[4].real 	180009014
scalar abilene_nodelay_network.client[4] 	avg_time[4].real 	0
scalar abilene_nodelay_network.client[5] 	hdistance[5].real 	0.81316697898136
scalar abilene_nodelay_network.client[5] 	downloads[5].real 	179992085
scalar abilene_nodelay_network.client[5] 	avg_time[5].real 	0
scalar abilene_nodelay_network.client[6] 	hdistance[6].real 	0.73158142357796
scalar abilene_nodelay_network.client[6] 	downloads[6].real 	179994964
scalar abilene_nodelay_network.client[6] 	avg_time[6].real 	0
scalar abilene_nodelay_network.client[7] 	hdistance[7].real 	0.65027080726419
scalar abilene_nodelay_network.client[7] 	downloads[7].real 	180002926
scalar abilene_nodelay_network.client[7] 	avg_time[7].real 	0
scalar abilene_nodelay_network.client[8] 	hdistance[8].real 	0.62504572376579
scalar abilene_nodelay_network.client[8] 	downloads[8].real 	179974787
scalar abilene_nodelay_network.client[8] 	avg_time[8].real 	0
scalar abilene_nodelay_network.client[9] 	hdistance[9].real 	0.69848143685859
scalar abilene_nodelay_network.client[9] 	downloads[9].real 	179991001
scalar abilene_nodelay_network.client[9] 	avg_time[9].real 	0
scalar abilene_nodelay_network.client[10] 	hdistance[10].real 	0.73328764777479
scalar abilene_nodelay_network.client[10] 	downloads[10].real 	180005825
scalar abilene_nodelay_network.client[10] 	avg_time[10].real 	0
