version 2
run General-6817-20140423-21:24:13-1898
attr D lce
attr F nrr
attr R lru
attr a 0.8
attr configname General
attr csize 2
attr ctlg 10^3
attr datetime 20140423-21:24:13
attr experiment General
attr inifile omnetpp.ini
attr iterationvars "$net=simple_scenario, $rep=19, $priceratiovalue=10, $a=0.8, $ctlg=10^3, $F=nrr, $ttl=1000, $D=lce, $R=lru, $csize=2"
attr iterationvars2 "$net=simple_scenario, $rep=19, $priceratiovalue=10, $a=0.8, $ctlg=10^3, $F=nrr, $ttl=1000, $D=lce, $R=lru, $csize=2, $repetition=0"
attr measurement "$net=simple_scenario, $rep=19, $priceratiovalue=10, $a=0.8, $ctlg=10^3, $F=nrr, $ttl=1000, $D=lce, $R=lru, $csize=2"
attr net simple_scenario
attr network networks.${net=simple_scenario}_network
attr priceratiovalue 10
attr processid 1898
attr rep 19
attr repetition 0
attr replication #0
attr resultdir results
attr runnumber 6817
attr seedset 19
attr ttl 1000

scalar . 	a 	0.8
scalar . 	csize 	2
scalar . 	priceratiovalue 	10
scalar . 	rep 	19
scalar . 	ttl 	1000
scalar simple_scenario_network.content_distribution 	repo-0 	3
scalar simple_scenario_network.content_distribution 	repo-1 	4
scalar simple_scenario_network.content_distribution 	client-0 	0
scalar simple_scenario_network.content_distribution 	repo-0_card 	476
scalar simple_scenario_network.content_distribution 	repo-1_card 	524
scalar simple_scenario_network.statistics 	p_hit 	0.012004826779969
scalar simple_scenario_network.statistics 	interests 	106240.6
scalar simple_scenario_network.statistics 	data 	70185.6
scalar simple_scenario_network.statistics 	hdistance 	2.9112522535017
scalar simple_scenario_network.statistics 	avg_time 	0.001997937645
scalar simple_scenario_network.statistics 	downloads 	180275
scalar simple_scenario_network.statistics 	total_cost 	90827
scalar simple_scenario_network.node[0].core_layer 	interests[0] 	180275
scalar simple_scenario_network.node[0].core_layer 	data[0] 	177030
scalar simple_scenario_network.node[0].core_layer 	repo_int[0] 	173898
scalar simple_scenario_network.node[0].content_store 	p_hit[0] 	0.018000277354042
scalar simple_scenario_network.node[0].content_store 	hits[0] 	3245
scalar simple_scenario_network.node[0].content_store 	misses[0] 	177030
scalar simple_scenario_network.node[1].core_layer 	interests[1] 	83540
scalar simple_scenario_network.node[1].core_layer 	data[1] 	82208
scalar simple_scenario_network.node[1].content_store 	p_hit[1] 	0.015944457744793
scalar simple_scenario_network.node[1].content_store 	hits[1] 	1332
scalar simple_scenario_network.node[1].content_store 	misses[1] 	82208
scalar simple_scenario_network.node[2].core_layer 	interests[2] 	93490
scalar simple_scenario_network.node[2].core_layer 	data[2] 	91690
scalar simple_scenario_network.node[2].content_store 	p_hit[2] 	0.019253396085143
scalar simple_scenario_network.node[2].content_store 	hits[2] 	1800
scalar simple_scenario_network.node[2].content_store 	misses[2] 	91690
scalar simple_scenario_network.node[3].core_layer 	interests[3] 	82208
scalar simple_scenario_network.node[3].core_layer 	repo_load[3] 	82208
scalar simple_scenario_network.node[3].core_layer 	data[3] 	0
scalar simple_scenario_network.node[3].content_store 	p_hit[3] 	0
scalar simple_scenario_network.node[3].content_store 	hits[3] 	0
scalar simple_scenario_network.node[3].content_store 	misses[3] 	82208
scalar simple_scenario_network.node[4].core_layer 	interests[4] 	91690
scalar simple_scenario_network.node[4].core_layer 	repo_load[4] 	91690
scalar simple_scenario_network.node[4].core_layer 	data[4] 	0
scalar simple_scenario_network.node[4].content_store 	p_hit[4] 	0
scalar simple_scenario_network.node[4].content_store 	hits[4] 	0
scalar simple_scenario_network.node[4].content_store 	misses[4] 	91690
scalar simple_scenario_network.client[0] 	hdistance[0] 	2.9112522535017
scalar simple_scenario_network.client[0] 	downloads[0] 	180275
scalar simple_scenario_network.client[0] 	avg_time[0] 	0.001997937645
