version 2
run General-5453-20140423-20:49:49-32678
attr D prob_cache
attr F nrr
attr R lru
attr a 0.8
attr configname General
attr csize 2
attr ctlg 10^3
attr datetime 20140423-20:49:49
attr experiment General
attr inifile omnetpp.ini
attr iterationvars "$net=simple_scenario, $rep=16, $priceratiovalue=2, $a=0.8, $ctlg=10^3, $F=nrr, $ttl=1000, $D=prob_cache, $R=lru, $csize=2"
attr iterationvars2 "$net=simple_scenario, $rep=16, $priceratiovalue=2, $a=0.8, $ctlg=10^3, $F=nrr, $ttl=1000, $D=prob_cache, $R=lru, $csize=2, $repetition=0"
attr measurement "$net=simple_scenario, $rep=16, $priceratiovalue=2, $a=0.8, $ctlg=10^3, $F=nrr, $ttl=1000, $D=prob_cache, $R=lru, $csize=2"
attr net simple_scenario
attr network networks.${net=simple_scenario}_network
attr priceratiovalue 2
attr processid 32678
attr rep 16
attr repetition 0
attr replication #0
attr resultdir results
attr runnumber 5453
attr seedset 16
attr ttl 1000

scalar . 	a 	0.8
scalar . 	csize 	2
scalar . 	priceratiovalue 	2
scalar . 	rep 	16
scalar . 	ttl 	1000
scalar simple_scenario_network.content_distribution 	repo-0 	3
scalar simple_scenario_network.content_distribution 	repo-1 	4
scalar simple_scenario_network.content_distribution 	client-0 	0
scalar simple_scenario_network.content_distribution 	repo-0_card 	495
scalar simple_scenario_network.content_distribution 	repo-1_card 	505
scalar simple_scenario_network.statistics 	p_hit 	0.019244899702858
scalar simple_scenario_network.statistics 	interests 	105337
scalar simple_scenario_network.statistics 	data 	69276
scalar simple_scenario_network.statistics 	hdistance 	2.8648623166302
scalar simple_scenario_network.statistics 	avg_time 	0.001998027979
scalar simple_scenario_network.statistics 	downloads 	180305
scalar simple_scenario_network.statistics 	total_cost 	86180
scalar simple_scenario_network.node[0].core_layer 	interests[0] 	180305
scalar simple_scenario_network.node[0].core_layer 	data[0] 	176211
scalar simple_scenario_network.node[0].core_layer 	repo_int[0] 	170169
scalar simple_scenario_network.node[0].content_store 	p_hit[0] 	0.022705970438978
scalar simple_scenario_network.node[0].content_store 	hits[0] 	4094
scalar simple_scenario_network.node[0].content_store 	misses[0] 	176211
scalar simple_scenario_network.node[1].core_layer 	interests[1] 	83846
scalar simple_scenario_network.node[1].core_layer 	data[1] 	81796
scalar simple_scenario_network.node[1].content_store 	p_hit[1] 	0.02444958614603
scalar simple_scenario_network.node[1].content_store 	hits[1] 	2050
scalar simple_scenario_network.node[1].content_store 	misses[1] 	81796
scalar simple_scenario_network.node[2].core_layer 	interests[2] 	92365
scalar simple_scenario_network.node[2].core_layer 	data[2] 	88373
scalar simple_scenario_network.node[2].content_store 	p_hit[2] 	0.043219834352839
scalar simple_scenario_network.node[2].content_store 	hits[2] 	3992
scalar simple_scenario_network.node[2].content_store 	misses[2] 	88373
scalar simple_scenario_network.node[3].core_layer 	interests[3] 	81796
scalar simple_scenario_network.node[3].core_layer 	repo_load[3] 	81796
scalar simple_scenario_network.node[3].core_layer 	data[3] 	0
scalar simple_scenario_network.node[3].content_store 	p_hit[3] 	0
scalar simple_scenario_network.node[3].content_store 	hits[3] 	0
scalar simple_scenario_network.node[3].content_store 	misses[3] 	81796
scalar simple_scenario_network.node[4].core_layer 	interests[4] 	88373
scalar simple_scenario_network.node[4].core_layer 	repo_load[4] 	88373
scalar simple_scenario_network.node[4].core_layer 	data[4] 	0
scalar simple_scenario_network.node[4].content_store 	p_hit[4] 	0
scalar simple_scenario_network.node[4].content_store 	hits[4] 	0
scalar simple_scenario_network.node[4].content_store 	misses[4] 	88373
scalar simple_scenario_network.client[0] 	hdistance[0] 	2.8648623166302
scalar simple_scenario_network.client[0] 	downloads[0] 	180305
scalar simple_scenario_network.client[0] 	avg_time[0] 	0.001998027979
