version 2
run General-2213-20140423-19:27:56-28174
attr D prob_cache
attr F nrr
attr R lru
attr a 0.8
attr configname General
attr csize 2
attr ctlg 10^3
attr datetime 20140423-19:27:56
attr experiment General
attr inifile omnetpp.ini
attr iterationvars "$net=simple_scenario, $rep=7, $priceratiovalue=2, $a=0.8, $ctlg=10^3, $F=nrr, $ttl=1000, $D=prob_cache, $R=lru, $csize=2"
attr iterationvars2 "$net=simple_scenario, $rep=7, $priceratiovalue=2, $a=0.8, $ctlg=10^3, $F=nrr, $ttl=1000, $D=prob_cache, $R=lru, $csize=2, $repetition=0"
attr measurement "$net=simple_scenario, $rep=7, $priceratiovalue=2, $a=0.8, $ctlg=10^3, $F=nrr, $ttl=1000, $D=prob_cache, $R=lru, $csize=2"
attr net simple_scenario
attr network networks.${net=simple_scenario}_network
attr priceratiovalue 2
attr processid 28174
attr rep 7
attr repetition 0
attr replication #0
attr resultdir results
attr runnumber 2213
attr seedset 7
attr ttl 1000

scalar . 	a 	0.8
scalar . 	csize 	2
scalar . 	priceratiovalue 	2
scalar . 	rep 	7
scalar . 	ttl 	1000
scalar simple_scenario_network.content_distribution 	repo-0 	3
scalar simple_scenario_network.content_distribution 	repo-1 	4
scalar simple_scenario_network.content_distribution 	client-0 	0
scalar simple_scenario_network.content_distribution 	repo-0_card 	505
scalar simple_scenario_network.content_distribution 	repo-1_card 	495
scalar simple_scenario_network.statistics 	p_hit 	0.019208094024571
scalar simple_scenario_network.statistics 	interests 	105164
scalar simple_scenario_network.statistics 	data 	69157.2
scalar simple_scenario_network.statistics 	hdistance 	2.864569273411
scalar simple_scenario_network.statistics 	avg_time 	0.001998389808
scalar simple_scenario_network.statistics 	downloads 	180033
scalar simple_scenario_network.statistics 	total_cost 	86556
scalar simple_scenario_network.node[0].core_layer 	interests[0] 	180034
scalar simple_scenario_network.node[0].core_layer 	data[0] 	175852
scalar simple_scenario_network.node[0].core_layer 	repo_int[0] 	169934
scalar simple_scenario_network.node[0].content_store 	p_hit[0] 	0.023228945643601
scalar simple_scenario_network.node[0].content_store 	hits[0] 	4182
scalar simple_scenario_network.node[0].content_store 	misses[0] 	175852
scalar simple_scenario_network.node[1].core_layer 	interests[1] 	82404
scalar simple_scenario_network.node[1].core_layer 	data[1] 	80198
scalar simple_scenario_network.node[1].content_store 	p_hit[1] 	0.026770545119169
scalar simple_scenario_network.node[1].content_store 	hits[1] 	2206
scalar simple_scenario_network.node[1].content_store 	misses[1] 	80198
scalar simple_scenario_network.node[2].core_layer 	interests[2] 	93448
scalar simple_scenario_network.node[2].core_layer 	data[2] 	89736
scalar simple_scenario_network.node[2].content_store 	p_hit[2] 	0.039722626487458
scalar simple_scenario_network.node[2].content_store 	hits[2] 	3712
scalar simple_scenario_network.node[2].content_store 	misses[2] 	89736
scalar simple_scenario_network.node[3].core_layer 	interests[3] 	80198
scalar simple_scenario_network.node[3].core_layer 	repo_load[3] 	80198
scalar simple_scenario_network.node[3].core_layer 	data[3] 	0
scalar simple_scenario_network.node[3].content_store 	p_hit[3] 	0
scalar simple_scenario_network.node[3].content_store 	hits[3] 	0
scalar simple_scenario_network.node[3].content_store 	misses[3] 	80198
scalar simple_scenario_network.node[4].core_layer 	interests[4] 	89736
scalar simple_scenario_network.node[4].core_layer 	repo_load[4] 	89736
scalar simple_scenario_network.node[4].core_layer 	data[4] 	0
scalar simple_scenario_network.node[4].content_store 	p_hit[4] 	0
scalar simple_scenario_network.node[4].content_store 	hits[4] 	0
scalar simple_scenario_network.node[4].content_store 	misses[4] 	89736
scalar simple_scenario_network.client[0] 	hdistance[0] 	2.864569273411
scalar simple_scenario_network.client[0] 	downloads[0] 	180033
scalar simple_scenario_network.client[0] 	avg_time[0] 	0.001998389808
