version 2
run General-1853-20140423-19:18:52-27788
attr D prob_cache
attr F nrr
attr R lru
attr a 0.8
attr configname General
attr csize 2
attr ctlg 10^3
attr datetime 20140423-19:18:52
attr experiment General
attr inifile omnetpp.ini
attr iterationvars "$net=simple_scenario, $rep=6, $priceratiovalue=2, $a=0.8, $ctlg=10^3, $F=nrr, $ttl=1000, $D=prob_cache, $R=lru, $csize=2"
attr iterationvars2 "$net=simple_scenario, $rep=6, $priceratiovalue=2, $a=0.8, $ctlg=10^3, $F=nrr, $ttl=1000, $D=prob_cache, $R=lru, $csize=2, $repetition=0"
attr measurement "$net=simple_scenario, $rep=6, $priceratiovalue=2, $a=0.8, $ctlg=10^3, $F=nrr, $ttl=1000, $D=prob_cache, $R=lru, $csize=2"
attr net simple_scenario
attr network networks.${net=simple_scenario}_network
attr priceratiovalue 2
attr processid 27788
attr rep 6
attr repetition 0
attr replication #0
attr resultdir results
attr runnumber 1853
attr seedset 6
attr ttl 1000

scalar . 	a 	0.8
scalar . 	csize 	2
scalar . 	priceratiovalue 	2
scalar . 	rep 	6
scalar . 	ttl 	1000
scalar simple_scenario_network.content_distribution 	repo-0 	3
scalar simple_scenario_network.content_distribution 	repo-1 	4
scalar simple_scenario_network.content_distribution 	client-0 	0
scalar simple_scenario_network.content_distribution 	repo-0_card 	495
scalar simple_scenario_network.content_distribution 	repo-1_card 	505
scalar simple_scenario_network.statistics 	p_hit 	0.019759174377278
scalar simple_scenario_network.statistics 	interests 	105287.8
scalar simple_scenario_network.statistics 	data 	69216
scalar simple_scenario_network.statistics 	hdistance 	2.8611665557773
scalar simple_scenario_network.statistics 	avg_time 	0.001998183514
scalar simple_scenario_network.statistics 	downloads 	180360
scalar simple_scenario_network.statistics 	total_cost 	85259
scalar simple_scenario_network.node[0].core_layer 	interests[0] 	180359
scalar simple_scenario_network.node[0].core_layer 	data[0] 	176123
scalar simple_scenario_network.node[0].core_layer 	repo_int[0] 	169957
scalar simple_scenario_network.node[0].content_store 	p_hit[0] 	0.023486490832174
scalar simple_scenario_network.node[0].content_store 	hits[0] 	4236
scalar simple_scenario_network.node[0].content_store 	misses[0] 	176123
scalar simple_scenario_network.node[1].core_layer 	interests[1] 	87823
scalar simple_scenario_network.node[1].core_layer 	data[1] 	84135
scalar simple_scenario_network.node[1].content_store 	p_hit[1] 	0.04199355521902
scalar simple_scenario_network.node[1].content_store 	hits[1] 	3688
scalar simple_scenario_network.node[1].content_store 	misses[1] 	84135
scalar simple_scenario_network.node[2].core_layer 	interests[2] 	88300
scalar simple_scenario_network.node[2].core_layer 	data[2] 	85822
scalar simple_scenario_network.node[2].content_store 	p_hit[2] 	0.02806342015855
scalar simple_scenario_network.node[2].content_store 	hits[2] 	2478
scalar simple_scenario_network.node[2].content_store 	misses[2] 	85822
scalar simple_scenario_network.node[3].core_layer 	interests[3] 	84135
scalar simple_scenario_network.node[3].core_layer 	repo_load[3] 	84135
scalar simple_scenario_network.node[3].core_layer 	data[3] 	0
scalar simple_scenario_network.node[3].content_store 	p_hit[3] 	0
scalar simple_scenario_network.node[3].content_store 	hits[3] 	0
scalar simple_scenario_network.node[3].content_store 	misses[3] 	84135
scalar simple_scenario_network.node[4].core_layer 	interests[4] 	85822
scalar simple_scenario_network.node[4].core_layer 	repo_load[4] 	85822
scalar simple_scenario_network.node[4].core_layer 	data[4] 	0
scalar simple_scenario_network.node[4].content_store 	p_hit[4] 	0
scalar simple_scenario_network.node[4].content_store 	hits[4] 	0
scalar simple_scenario_network.node[4].content_store 	misses[4] 	85822
scalar simple_scenario_network.client[0] 	hdistance[0] 	2.8611665557773
scalar simple_scenario_network.client[0] 	downloads[0] 	180360
scalar simple_scenario_network.client[0] 	avg_time[0] 	0.001998183514
