version 2
run General-385-20140421-20:10:13-15052
attr D fix0.1
attr F nrr
attr R lru
attr a 0.8
attr configname General
attr csize 10
attr ctlg 10^3
attr datetime 20140421-20:10:13
attr experiment General
attr inifile omnetpp.ini
attr iterationvars "$net=simple_scenario, $rep=12, $priceratiovalue=5, $a=0.8, $ctlg=10^3, $F=nrr, $ttl=1000, $D=fix0.1, $R=lru, $csize=10"
attr iterationvars2 "$net=simple_scenario, $rep=12, $priceratiovalue=5, $a=0.8, $ctlg=10^3, $F=nrr, $ttl=1000, $D=fix0.1, $R=lru, $csize=10, $repetition=0"
attr measurement "$net=simple_scenario, $rep=12, $priceratiovalue=5, $a=0.8, $ctlg=10^3, $F=nrr, $ttl=1000, $D=fix0.1, $R=lru, $csize=10"
attr net simple_scenario
attr network networks.${net=simple_scenario}_network
attr priceratiovalue 5
attr processid 15052
attr rep 12
attr repetition 0
attr replication #0
attr resultdir results
attr runnumber 385
attr seedset 12
attr ttl 1000

scalar . 	a 	0.8
scalar . 	csize 	10
scalar . 	priceratiovalue 	5
scalar . 	rep 	12
scalar . 	ttl 	1000
scalar simple_scenario_network.content_distribution 	repo-0 	3
scalar simple_scenario_network.content_distribution 	repo-1 	4
scalar simple_scenario_network.content_distribution 	client-0 	0
scalar simple_scenario_network.content_distribution 	repo-0_card 	492
scalar simple_scenario_network.content_distribution 	repo-1_card 	508
scalar simple_scenario_network.statistics 	p_hit 	0.080528084553757
scalar simple_scenario_network.statistics 	interests 	95636.2
scalar simple_scenario_network.statistics 	data 	59668.4
scalar simple_scenario_network.statistics 	hdistance 	2.4448200890797
scalar simple_scenario_network.statistics 	avg_time 	0.001998276886
scalar simple_scenario_network.statistics 	downloads 	179839
scalar simple_scenario_network.statistics 	total_cost 	71133
scalar simple_scenario_network.node[0].core_layer 	interests[0] 	179839
scalar simple_scenario_network.node[0].core_layer 	data[0] 	157010
scalar simple_scenario_network.node[0].core_layer 	repo_int[0] 	141332
scalar simple_scenario_network.node[0].content_store 	p_hit[0] 	0.12694131973599
scalar simple_scenario_network.node[0].content_store 	hits[0] 	22829
scalar simple_scenario_network.node[0].content_store 	misses[0] 	157010
scalar simple_scenario_network.node[1].core_layer 	interests[1] 	76840
scalar simple_scenario_network.node[1].core_layer 	data[1] 	69964
scalar simple_scenario_network.node[1].content_store 	p_hit[1] 	0.089484643414888
scalar simple_scenario_network.node[1].content_store 	hits[1] 	6876
scalar simple_scenario_network.node[1].content_store 	misses[1] 	69964
scalar simple_scenario_network.node[2].core_layer 	interests[2] 	80170
scalar simple_scenario_network.node[2].core_layer 	data[2] 	71368
scalar simple_scenario_network.node[2].content_store 	p_hit[2] 	0.10979169265311
scalar simple_scenario_network.node[2].content_store 	hits[2] 	8802
scalar simple_scenario_network.node[2].content_store 	misses[2] 	71368
scalar simple_scenario_network.node[3].core_layer 	interests[3] 	69964
scalar simple_scenario_network.node[3].core_layer 	repo_load[3] 	69964
scalar simple_scenario_network.node[3].core_layer 	data[3] 	0
scalar simple_scenario_network.node[3].content_store 	p_hit[3] 	0
scalar simple_scenario_network.node[3].content_store 	hits[3] 	0
scalar simple_scenario_network.node[3].content_store 	misses[3] 	69964
scalar simple_scenario_network.node[4].core_layer 	interests[4] 	71368
scalar simple_scenario_network.node[4].core_layer 	repo_load[4] 	71368
scalar simple_scenario_network.node[4].core_layer 	data[4] 	0
scalar simple_scenario_network.node[4].content_store 	p_hit[4] 	0
scalar simple_scenario_network.node[4].content_store 	hits[4] 	0
scalar simple_scenario_network.node[4].content_store 	misses[4] 	71368
scalar simple_scenario_network.client[0] 	hdistance[0] 	2.4448200890797
scalar simple_scenario_network.client[0] 	downloads[0] 	179839
scalar simple_scenario_network.client[0] 	avg_time[0] 	0.001998276886
