version 2
run General-337-20140421-20:09:06-15002
attr D fix0.1
attr F nrr
attr R lru
attr a 0.8
attr configname General
attr csize 10
attr ctlg 10^3
attr datetime 20140421-20:09:06
attr experiment General
attr inifile omnetpp.ini
attr iterationvars "$net=simple_scenario, $rep=11, $priceratiovalue=7, $a=0.8, $ctlg=10^3, $F=nrr, $ttl=1000, $D=fix0.1, $R=lru, $csize=10"
attr iterationvars2 "$net=simple_scenario, $rep=11, $priceratiovalue=7, $a=0.8, $ctlg=10^3, $F=nrr, $ttl=1000, $D=fix0.1, $R=lru, $csize=10, $repetition=0"
attr measurement "$net=simple_scenario, $rep=11, $priceratiovalue=7, $a=0.8, $ctlg=10^3, $F=nrr, $ttl=1000, $D=fix0.1, $R=lru, $csize=10"
attr net simple_scenario
attr network networks.${net=simple_scenario}_network
attr priceratiovalue 7
attr processid 15002
attr rep 11
attr repetition 0
attr replication #0
attr resultdir results
attr runnumber 337
attr seedset 11
attr ttl 1000

scalar . 	a 	0.8
scalar . 	csize 	10
scalar . 	priceratiovalue 	7
scalar . 	rep 	11
scalar . 	ttl 	1000
scalar simple_scenario_network.content_distribution 	repo-0 	3
scalar simple_scenario_network.content_distribution 	repo-1 	4
scalar simple_scenario_network.content_distribution 	client-0 	0
scalar simple_scenario_network.content_distribution 	repo-0_card 	503
scalar simple_scenario_network.content_distribution 	repo-1_card 	497
scalar simple_scenario_network.statistics 	p_hit 	0.080612089518927
scalar simple_scenario_network.statistics 	interests 	95881.4
scalar simple_scenario_network.statistics 	data 	59809
scalar simple_scenario_network.statistics 	hdistance 	2.443757554252
scalar simple_scenario_network.statistics 	avg_time 	0.001998104219
scalar simple_scenario_network.statistics 	downloads 	180362
scalar simple_scenario_network.statistics 	total_cost 	73286
scalar simple_scenario_network.node[0].core_layer 	interests[0] 	180362
scalar simple_scenario_network.node[0].core_layer 	data[0] 	157329
scalar simple_scenario_network.node[0].core_layer 	repo_int[0] 	141716
scalar simple_scenario_network.node[0].content_store 	p_hit[0] 	0.12770428360741
scalar simple_scenario_network.node[0].content_store 	hits[0] 	23033
scalar simple_scenario_network.node[0].content_store 	misses[0] 	157329
scalar simple_scenario_network.node[1].core_layer 	interests[1] 	74003
scalar simple_scenario_network.node[1].core_layer 	data[1] 	67619
scalar simple_scenario_network.node[1].content_store 	p_hit[1] 	0.086266772968663
scalar simple_scenario_network.node[1].content_store 	hits[1] 	6384
scalar simple_scenario_network.node[1].content_store 	misses[1] 	67619
scalar simple_scenario_network.node[2].core_layer 	interests[2] 	83326
scalar simple_scenario_network.node[2].core_layer 	data[2] 	74097
scalar simple_scenario_network.node[2].content_store 	p_hit[2] 	0.11075774668171
scalar simple_scenario_network.node[2].content_store 	hits[2] 	9229
scalar simple_scenario_network.node[2].content_store 	misses[2] 	74097
scalar simple_scenario_network.node[3].core_layer 	interests[3] 	67619
scalar simple_scenario_network.node[3].core_layer 	repo_load[3] 	67619
scalar simple_scenario_network.node[3].core_layer 	data[3] 	0
scalar simple_scenario_network.node[3].content_store 	p_hit[3] 	0
scalar simple_scenario_network.node[3].content_store 	hits[3] 	0
scalar simple_scenario_network.node[3].content_store 	misses[3] 	67619
scalar simple_scenario_network.node[4].core_layer 	interests[4] 	74097
scalar simple_scenario_network.node[4].core_layer 	repo_load[4] 	74097
scalar simple_scenario_network.node[4].core_layer 	data[4] 	0
scalar simple_scenario_network.node[4].content_store 	p_hit[4] 	0
scalar simple_scenario_network.node[4].content_store 	hits[4] 	0
scalar simple_scenario_network.node[4].content_store 	misses[4] 	74097
scalar simple_scenario_network.client[0] 	hdistance[0] 	2.443757554252
scalar simple_scenario_network.client[0] 	downloads[0] 	180362
scalar simple_scenario_network.client[0] 	avg_time[0] 	0.001998104219
