version 2
run General-2315-20140425-16:41:52-14905
attr D costprob0.2
attr F nrr
attr R lru
attr a 1.2
attr configname General
attr csize 9
attr ctlg 10^3
attr datetime 20140425-16:41:52
attr experiment General
attr inifile omnetpp.ini
attr iterationvars "$net=one_cache_scenario, $rep=20, $priceratiovalue=3, $a=1.2, $ctlg=10^3, $F=nrr, $ttl=1000, $D=costprob0.2, $R=lru, $csize=9"
attr iterationvars2 "$net=one_cache_scenario, $rep=20, $priceratiovalue=3, $a=1.2, $ctlg=10^3, $F=nrr, $ttl=1000, $D=costprob0.2, $R=lru, $csize=9, $repetition=0"
attr measurement "$net=one_cache_scenario, $rep=20, $priceratiovalue=3, $a=1.2, $ctlg=10^3, $F=nrr, $ttl=1000, $D=costprob0.2, $R=lru, $csize=9"
attr net one_cache_scenario
attr network networks.${net=one_cache_scenario}_network
attr priceratiovalue 3
attr processid 14905
attr rep 20
attr repetition 0
attr replication #0
attr resultdir results
attr runnumber 2315
attr seedset 20
attr ttl 1000

scalar . 	a 	1.2
scalar . 	csize 	9
scalar . 	priceratiovalue 	3
scalar . 	rep 	20
scalar . 	ttl 	1000
scalar one_cache_scenario_network.content_distribution 	repo-0 	3
scalar one_cache_scenario_network.content_distribution 	repo-1 	4
scalar one_cache_scenario_network.content_distribution 	client-0 	0
scalar one_cache_scenario_network.content_distribution 	repo-0_card 	474
scalar one_cache_scenario_network.content_distribution 	repo-1_card 	526
scalar one_cache_scenario_network.statistics 	p_hit 	0.22350668195192
scalar one_cache_scenario_network.statistics 	interests 	74843.4
scalar one_cache_scenario_network.statistics 	data 	38743.6
scalar one_cache_scenario_network.statistics 	hdistance 	1.0732358628026
scalar one_cache_scenario_network.statistics 	avg_time 	0
scalar one_cache_scenario_network.statistics 	downloads 	180499
scalar one_cache_scenario_network.statistics 	total_cost 	48776
scalar one_cache_scenario_network.statistics 	interests_sent 	180499
scalar one_cache_scenario_network.node[0].core_layer 	interests[0] 	180499
scalar one_cache_scenario_network.node[0].core_layer 	data[0] 	96859
scalar one_cache_scenario_network.node[0].core_layer 	repo_int[0] 	96859
scalar one_cache_scenario_network.node[0].content_store 	p_hit[0] 	0.46338206859872
scalar one_cache_scenario_network.node[0].content_store 	hits[0] 	83640
scalar one_cache_scenario_network.node[0].content_store 	misses[0] 	96859
scalar one_cache_scenario_network.node[0].content_store 	decision_yes[0] 	9830
scalar one_cache_scenario_network.node[0].content_store 	decision_no[0] 	87029
scalar one_cache_scenario_network.node[1].core_layer 	interests[1] 	47736
scalar one_cache_scenario_network.node[1].core_layer 	data[1] 	47736
scalar one_cache_scenario_network.node[1].content_store 	p_hit[1] 	0
scalar one_cache_scenario_network.node[1].content_store 	hits[1] 	0
scalar one_cache_scenario_network.node[1].content_store 	misses[1] 	47736
scalar one_cache_scenario_network.node[1].content_store 	decision_yes[1] 	0
scalar one_cache_scenario_network.node[1].content_store 	decision_no[1] 	47736
scalar one_cache_scenario_network.node[2].core_layer 	interests[2] 	49123
scalar one_cache_scenario_network.node[2].core_layer 	data[2] 	49123
scalar one_cache_scenario_network.node[2].content_store 	p_hit[2] 	0
scalar one_cache_scenario_network.node[2].content_store 	hits[2] 	0
scalar one_cache_scenario_network.node[2].content_store 	misses[2] 	49123
scalar one_cache_scenario_network.node[2].content_store 	decision_yes[2] 	0
scalar one_cache_scenario_network.node[2].content_store 	decision_no[2] 	49123
scalar one_cache_scenario_network.node[3].core_layer 	interests[3] 	47736
scalar one_cache_scenario_network.node[3].core_layer 	repo_load[3] 	47736
scalar one_cache_scenario_network.node[3].core_layer 	data[3] 	0
scalar one_cache_scenario_network.node[3].content_store 	p_hit[3] 	0
scalar one_cache_scenario_network.node[3].content_store 	hits[3] 	0
scalar one_cache_scenario_network.node[3].content_store 	misses[3] 	47736
scalar one_cache_scenario_network.node[3].content_store 	decision_yes[3] 	0
scalar one_cache_scenario_network.node[3].content_store 	decision_no[3] 	47736
scalar one_cache_scenario_network.node[4].core_layer 	interests[4] 	49123
scalar one_cache_scenario_network.node[4].core_layer 	repo_load[4] 	49123
scalar one_cache_scenario_network.node[4].core_layer 	data[4] 	0
scalar one_cache_scenario_network.node[4].content_store 	p_hit[4] 	0
scalar one_cache_scenario_network.node[4].content_store 	hits[4] 	0
scalar one_cache_scenario_network.node[4].content_store 	misses[4] 	49123
scalar one_cache_scenario_network.node[4].content_store 	decision_yes[4] 	0
scalar one_cache_scenario_network.node[4].content_store 	decision_no[4] 	49123
scalar one_cache_scenario_network.client[0] 	hdistance[0] 	1.0732358628026
scalar one_cache_scenario_network.client[0] 	downloads[0] 	180499
scalar one_cache_scenario_network.client[0] 	avg_time[0] 	0
scalar one_cache_scenario_network.client[0] 	interests_sent[0] 	180499
