version 2
run General-1-20140626-15:19:34-16294
attr D costprobcoincorr0.5
attr F nrr
attr R lru
attr a 1
attr configname General
attr csize 1e3
attr ctlg 1e5
attr datetime 20140626-15:19:34
attr experiment General
attr inifile omnetpp.ini
attr iterationvars "$net=geant_cost, $rep=1, $priceratiovalue=10, $weights=0.333_0.333_0.334, $lambda=100, $a=1, $ctlg=1e5, $F=nrr, $ttl=1000, $D=costprobcoincorr0.5, $xi=1, $R=lru, $csize=1e3, $pricebits=0, $mytime=1800"
attr iterationvars2 "$net=geant_cost, $rep=1, $priceratiovalue=10, $weights=0.333_0.333_0.334, $lambda=100, $a=1, $ctlg=1e5, $F=nrr, $ttl=1000, $D=costprobcoincorr0.5, $xi=1, $R=lru, $csize=1e3, $pricebits=0, $mytime=1800, $repetition=0"
attr lambda 100
attr measurement "$net=geant_cost, $rep=1, $priceratiovalue=10, $weights=0.333_0.333_0.334, $lambda=100, $a=1, $ctlg=1e5, $F=nrr, $ttl=1000, $D=costprobcoincorr0.5, $xi=1, $R=lru, $csize=1e3, $pricebits=0, $mytime=1800"
attr mytime 1800
attr net geant_cost
attr network networks.${net=geant_cost}_network
attr pricebits 0
attr priceratiovalue 10
attr processid 16294
attr rep 1
attr repetition 0
attr replication #0
attr resultdir results
attr runnumber 1
attr seedset 1
attr ttl 1000
attr weights 0.333_0.333_0.334
attr xi 1

scalar . 	a 	1
scalar . 	csize 	1e3
scalar . 	ctlg 	1e5
scalar . 	lambda 	100
scalar . 	mytime 	1800
scalar . 	pricebits 	0
scalar . 	priceratiovalue 	10
scalar . 	rep 	1
scalar . 	ttl 	1000
scalar . 	xi 	1
scalar geant_cost_network.content_distribution 	repo-0 	22
scalar geant_cost_network.content_distribution 	repo-1 	23
scalar geant_cost_network.content_distribution 	repo-2 	24
scalar geant_cost_network.content_distribution 	client-0 	20
scalar geant_cost_network.content_distribution 	client-1 	10
scalar geant_cost_network.content_distribution 	client-2 	12
scalar geant_cost_network.content_distribution 	client-3 	9
scalar geant_cost_network.content_distribution 	client-4 	5
scalar geant_cost_network.content_distribution 	repo-0_card 	33396
scalar geant_cost_network.content_distribution 	repo-1_card 	33039
scalar geant_cost_network.content_distribution 	repo-2_card 	33565
scalar geant_cost_network.statistics 	repo_popularity[0] 	0.28686251265602
scalar geant_cost_network.statistics 	repo_popularity[1] 	0.2886063426465
scalar geant_cost_network.statistics 	repo_popularity[2] 	0.42453114469748
scalar geant_cost_network.node[7].face$o[4].channel 	price[7] 	0
scalar geant_cost_network.node[7].face$o[4].channel 	represented_price[7] 	0
scalar geant_cost_network.node[8].face$o[3].channel 	price[8] 	0
scalar geant_cost_network.node[8].face$o[3].channel 	represented_price[8] 	0
scalar geant_cost_network.node[21].face$o[5].channel 	price[21] 	0
scalar geant_cost_network.node[21].face$o[5].channel 	represented_price[21] 	0
scalar geant_cost_network.node[22].face$o[1].channel 	price[22] 	0
scalar geant_cost_network.node[22].face$o[1].channel 	represented_price[22] 	0
scalar geant_cost_network.node[23].face$o[1].channel 	price[23] 	1
scalar geant_cost_network.node[23].face$o[1].channel 	represented_price[23] 	1
scalar geant_cost_network.node[24].face$o[1].channel 	price[24] 	10
scalar geant_cost_network.node[24].face$o[1].channel 	represented_price[24] 	10
scalar geant_cost_network.statistics 	p_hit 	0.13001373263287
scalar geant_cost_network.statistics 	interests 	2262348.4
scalar geant_cost_network.statistics 	data 	1603046.96
scalar geant_cost_network.statistics 	hdistance 	2.9890224607361
scalar geant_cost_network.statistics 	avg_time 	0.007409469207
scalar geant_cost_network.statistics 	downloads 	16454770
scalar geant_cost_network.statistics 	total_cost 	33319038
scalar geant_cost_network.statistics 	total_replicas 	100000
scalar geant_cost_network.statistics 	inner_hit 	0.44822437505963
scalar geant_cost_network.statistics 	interests_sent 	16482521
scalar geant_cost_network.node[0].core_layer 	interests[0] 	0
scalar geant_cost_network.node[0].core_layer 	data[0] 	0
scalar geant_cost_network.node[0].core_layer 	repo_int[0] 	9079341
scalar geant_cost_network.node[0].content_store 	p_hit[0] 	-nan
scalar geant_cost_network.node[0].content_store 	hits[0] 	0
scalar geant_cost_network.node[0].content_store 	misses[0] 	0
scalar geant_cost_network.node[0].content_store 	decision_yes[0] 	0
scalar geant_cost_network.node[0].content_store 	decision_no[0] 	0
scalar geant_cost_network.node[0].content_store 	decision_ratio[0] 	0
scalar geant_cost_network.node[0].content_store 	correction_factor[0] 	0.13612850530901
scalar geant_cost_network.node[0].content_store 	xi[0] 	1
scalar geant_cost_network.node[1].core_layer 	interests[1] 	0
scalar geant_cost_network.node[1].core_layer 	data[1] 	0
scalar geant_cost_network.node[1].content_store 	p_hit[1] 	-nan
scalar geant_cost_network.node[1].content_store 	hits[1] 	0
scalar geant_cost_network.node[1].content_store 	misses[1] 	0
scalar geant_cost_network.node[1].content_store 	decision_yes[1] 	0
scalar geant_cost_network.node[1].content_store 	decision_no[1] 	0
scalar geant_cost_network.node[1].content_store 	decision_ratio[1] 	0
scalar geant_cost_network.node[1].content_store 	correction_factor[1] 	0.13612850530901
scalar geant_cost_network.node[1].content_store 	xi[1] 	1
scalar geant_cost_network.node[2].core_layer 	interests[2] 	0
scalar geant_cost_network.node[2].core_layer 	data[2] 	0
scalar geant_cost_network.node[2].content_store 	p_hit[2] 	-nan
scalar geant_cost_network.node[2].content_store 	hits[2] 	0
scalar geant_cost_network.node[2].content_store 	misses[2] 	0
scalar geant_cost_network.node[2].content_store 	decision_yes[2] 	0
scalar geant_cost_network.node[2].content_store 	decision_no[2] 	0
scalar geant_cost_network.node[2].content_store 	decision_ratio[2] 	0
scalar geant_cost_network.node[2].content_store 	correction_factor[2] 	0.13612850530901
scalar geant_cost_network.node[2].content_store 	xi[2] 	1
scalar geant_cost_network.node[3].core_layer 	interests[3] 	2712528
scalar geant_cost_network.node[3].core_layer 	data[3] 	2612338
scalar geant_cost_network.node[3].content_store 	p_hit[3] 	0.036933443636342
scalar geant_cost_network.node[3].content_store 	hits[3] 	100183
scalar geant_cost_network.node[3].content_store 	misses[3] 	2612345
scalar geant_cost_network.node[3].content_store 	decision_yes[3] 	1306418
scalar geant_cost_network.node[3].content_store 	decision_no[3] 	1305736
scalar geant_cost_network.node[3].content_store 	decision_ratio[3] 	0.50013054360501
scalar geant_cost_network.node[3].content_store 	correction_factor[3] 	0.13612850530901
scalar geant_cost_network.node[3].content_store 	xi[3] 	1
scalar geant_cost_network.node[4].core_layer 	interests[4] 	3929950
scalar geant_cost_network.node[4].core_layer 	data[4] 	3882980
scalar geant_cost_network.node[4].content_store 	p_hit[4] 	0.011940864387588
scalar geant_cost_network.node[4].content_store 	hits[4] 	46927
scalar geant_cost_network.node[4].content_store 	misses[4] 	3883023
scalar geant_cost_network.node[4].content_store 	decision_yes[4] 	1942430
scalar geant_cost_network.node[4].content_store 	decision_no[4] 	1940342
scalar geant_cost_network.node[4].content_store 	decision_ratio[4] 	0.50026888006816
scalar geant_cost_network.node[4].content_store 	correction_factor[4] 	0.13612850530901
scalar geant_cost_network.node[4].content_store 	xi[4] 	1
scalar geant_cost_network.node[5].core_layer 	interests[5] 	3389624
scalar geant_cost_network.node[5].core_layer 	data[5] 	2544910
scalar geant_cost_network.node[5].content_store 	p_hit[5] 	0.24755164584626
scalar geant_cost_network.node[5].content_store 	hits[5] 	839107
scalar geant_cost_network.node[5].content_store 	misses[5] 	2550517
scalar geant_cost_network.node[5].content_store 	decision_yes[5] 	1271266
scalar geant_cost_network.node[5].content_store 	decision_no[5] 	1273644
scalar geant_cost_network.node[5].content_store 	decision_ratio[5] 	0.4995327929082
scalar geant_cost_network.node[5].content_store 	correction_factor[5] 	0.13612850530901
scalar geant_cost_network.node[5].content_store 	xi[5] 	1
scalar geant_cost_network.node[6].core_layer 	interests[6] 	1309220
scalar geant_cost_network.node[6].core_layer 	data[6] 	1226359
scalar geant_cost_network.node[6].content_store 	p_hit[6] 	0.063290356089886
scalar geant_cost_network.node[6].content_store 	hits[6] 	82861
scalar geant_cost_network.node[6].content_store 	misses[6] 	1226359
scalar geant_cost_network.node[6].content_store 	decision_yes[6] 	612562
scalar geant_cost_network.node[6].content_store 	decision_no[6] 	613797
scalar geant_cost_network.node[6].content_store 	decision_ratio[6] 	0.49949647696963
scalar geant_cost_network.node[6].content_store 	correction_factor[6] 	0.13612850530901
scalar geant_cost_network.node[6].content_store 	xi[6] 	1
scalar geant_cost_network.node[7].core_layer 	interests[7] 	4351880
scalar geant_cost_network.node[7].core_layer 	data[7] 	4300479
scalar geant_cost_network.node[7].content_store 	p_hit[7] 	0.011805242791621
scalar geant_cost_network.node[7].content_store 	hits[7] 	51375
scalar geant_cost_network.node[7].content_store 	misses[7] 	4300505
scalar geant_cost_network.node[7].content_store 	decision_yes[7] 	2148298
scalar geant_cost_network.node[7].content_store 	decision_no[7] 	2152074
scalar geant_cost_network.node[7].content_store 	decision_ratio[7] 	0.49956096821391
scalar geant_cost_network.node[7].content_store 	correction_factor[7] 	0.13612850530901
scalar geant_cost_network.node[7].content_store 	xi[7] 	1
scalar geant_cost_network.node[8].core_layer 	interests[8] 	4351148
scalar geant_cost_network.node[8].core_layer 	data[8] 	4289349
scalar geant_cost_network.node[8].content_store 	p_hit[8] 	0.014202918402224
scalar geant_cost_network.node[8].content_store 	hits[8] 	61799
scalar geant_cost_network.node[8].content_store 	misses[8] 	4289349
scalar geant_cost_network.node[8].content_store 	decision_yes[8] 	2144013
scalar geant_cost_network.node[8].content_store 	decision_no[8] 	2145203
scalar geant_cost_network.node[8].content_store 	decision_ratio[8] 	0.49986128001015
scalar geant_cost_network.node[8].content_store 	correction_factor[8] 	0.13612850530901
scalar geant_cost_network.node[8].content_store 	xi[8] 	1
scalar geant_cost_network.node[9].core_layer 	interests[9] 	6512070
scalar geant_cost_network.node[9].core_layer 	data[9] 	5641143
scalar geant_cost_network.node[9].content_store 	p_hit[9] 	0.13199305290023
scalar geant_cost_network.node[9].content_store 	hits[9] 	859548
scalar geant_cost_network.node[9].content_store 	misses[9] 	5652522
scalar geant_cost_network.node[9].content_store 	decision_yes[9] 	2820685
scalar geant_cost_network.node[9].content_store 	decision_no[9] 	2820076
scalar geant_cost_network.node[9].content_store 	decision_ratio[9] 	0.50005398207795
scalar geant_cost_network.node[9].content_store 	correction_factor[9] 	0.13612850530901
scalar geant_cost_network.node[9].content_store 	xi[9] 	1
scalar geant_cost_network.node[10].core_layer 	interests[10] 	3507807
scalar geant_cost_network.node[10].core_layer 	data[10] 	2486019
scalar geant_cost_network.node[10].content_store 	p_hit[10] 	0.29006470424399
scalar geant_cost_network.node[10].content_store 	hits[10] 	1017491
scalar geant_cost_network.node[10].content_store 	misses[10] 	2490316
scalar geant_cost_network.node[10].content_store 	decision_yes[10] 	1243250
scalar geant_cost_network.node[10].content_store 	decision_no[10] 	1242769
scalar geant_cost_network.node[10].content_store 	decision_ratio[10] 	0.50009674101445
scalar geant_cost_network.node[10].content_store 	correction_factor[10] 	0.13612850530901
scalar geant_cost_network.node[10].content_store 	xi[10] 	1
scalar geant_cost_network.node[11].core_layer 	interests[11] 	0
scalar geant_cost_network.node[11].core_layer 	data[11] 	0
scalar geant_cost_network.node[11].content_store 	p_hit[11] 	-nan
scalar geant_cost_network.node[11].content_store 	hits[11] 	0
scalar geant_cost_network.node[11].content_store 	misses[11] 	0
scalar geant_cost_network.node[11].content_store 	decision_yes[11] 	0
scalar geant_cost_network.node[11].content_store 	decision_no[11] 	0
scalar geant_cost_network.node[11].content_store 	decision_ratio[11] 	0
scalar geant_cost_network.node[11].content_store 	correction_factor[11] 	0.13612850530901
scalar geant_cost_network.node[11].content_store 	xi[11] 	1
scalar geant_cost_network.node[12].core_layer 	interests[12] 	5659941
scalar geant_cost_network.node[12].core_layer 	data[12] 	4603806
scalar geant_cost_network.node[12].content_store 	p_hit[12] 	0.18268441314141
scalar geant_cost_network.node[12].content_store 	hits[12] 	1033983
scalar geant_cost_network.node[12].content_store 	misses[12] 	4625958
scalar geant_cost_network.node[12].content_store 	decision_yes[12] 	2301044
scalar geant_cost_network.node[12].content_store 	decision_no[12] 	2302698
scalar geant_cost_network.node[12].content_store 	decision_ratio[12] 	0.49982036352167
scalar geant_cost_network.node[12].content_store 	correction_factor[12] 	0.13612850530901
scalar geant_cost_network.node[12].content_store 	xi[12] 	1
scalar geant_cost_network.node[13].core_layer 	interests[13] 	913268
scalar geant_cost_network.node[13].core_layer 	data[13] 	26227
scalar geant_cost_network.node[13].content_store 	p_hit[13] 	0.9712822523071
scalar geant_cost_network.node[13].content_store 	hits[13] 	887041
scalar geant_cost_network.node[13].content_store 	misses[13] 	26227
scalar geant_cost_network.node[13].content_store 	decision_yes[13] 	13081
scalar geant_cost_network.node[13].content_store 	decision_no[13] 	13146
scalar geant_cost_network.node[13].content_store 	decision_ratio[13] 	0.49876081900332
scalar geant_cost_network.node[13].content_store 	correction_factor[13] 	0.13612850530901
scalar geant_cost_network.node[13].content_store 	xi[13] 	1
scalar geant_cost_network.node[14].core_layer 	interests[14] 	1539522
scalar geant_cost_network.node[14].core_layer 	data[14] 	1130445
scalar geant_cost_network.node[14].content_store 	p_hit[14] 	0.2642274680063
scalar geant_cost_network.node[14].content_store 	hits[14] 	406784
scalar geant_cost_network.node[14].content_store 	misses[14] 	1132738
scalar geant_cost_network.node[14].content_store 	decision_yes[14] 	565284
scalar geant_cost_network.node[14].content_store 	decision_no[14] 	565095
scalar geant_cost_network.node[14].content_store 	decision_ratio[14] 	0.5000836002792
scalar geant_cost_network.node[14].content_store 	correction_factor[14] 	0.13612850530901
scalar geant_cost_network.node[14].content_store 	xi[14] 	1
scalar geant_cost_network.node[15].core_layer 	interests[15] 	955533
scalar geant_cost_network.node[15].core_layer 	data[15] 	186
scalar geant_cost_network.node[15].content_store 	p_hit[15] 	0.99980534424243
scalar geant_cost_network.node[15].content_store 	hits[15] 	955347
scalar geant_cost_network.node[15].content_store 	misses[15] 	186
scalar geant_cost_network.node[15].content_store 	decision_yes[15] 	99
scalar geant_cost_network.node[15].content_store 	decision_no[15] 	87
scalar geant_cost_network.node[15].content_store 	decision_ratio[15] 	0.53225806451613
scalar geant_cost_network.node[15].content_store 	correction_factor[15] 	0.13612850530901
scalar geant_cost_network.node[15].content_store 	xi[15] 	1
scalar geant_cost_network.node[16].core_layer 	interests[16] 	0
scalar geant_cost_network.node[16].core_layer 	data[16] 	0
scalar geant_cost_network.node[16].content_store 	p_hit[16] 	-nan
scalar geant_cost_network.node[16].content_store 	hits[16] 	0
scalar geant_cost_network.node[16].content_store 	misses[16] 	0
scalar geant_cost_network.node[16].content_store 	decision_yes[16] 	0
scalar geant_cost_network.node[16].content_store 	decision_no[16] 	0
scalar geant_cost_network.node[16].content_store 	decision_ratio[16] 	0
scalar geant_cost_network.node[16].content_store 	correction_factor[16] 	0.13612850530901
scalar geant_cost_network.node[16].content_store 	xi[16] 	1
scalar geant_cost_network.node[17].core_layer 	interests[17] 	0
scalar geant_cost_network.node[17].core_layer 	data[17] 	0
scalar geant_cost_network.node[17].content_store 	p_hit[17] 	-nan
scalar geant_cost_network.node[17].content_store 	hits[17] 	0
scalar geant_cost_network.node[17].content_store 	misses[17] 	0
scalar geant_cost_network.node[17].content_store 	decision_yes[17] 	0
scalar geant_cost_network.node[17].content_store 	decision_no[17] 	0
scalar geant_cost_network.node[17].content_store 	decision_ratio[17] 	0
scalar geant_cost_network.node[17].content_store 	correction_factor[17] 	0.13612850530901
scalar geant_cost_network.node[17].content_store 	xi[17] 	1
scalar geant_cost_network.node[18].core_layer 	interests[18] 	1962792
scalar geant_cost_network.node[18].core_layer 	data[18] 	1782080
scalar geant_cost_network.node[18].content_store 	p_hit[18] 	0.092067829907601
scalar geant_cost_network.node[18].content_store 	hits[18] 	180710
scalar geant_cost_network.node[18].content_store 	misses[18] 	1782082
scalar geant_cost_network.node[18].content_store 	decision_yes[18] 	890816
scalar geant_cost_network.node[18].content_store 	decision_no[18] 	891216
scalar geant_cost_network.node[18].content_store 	decision_ratio[18] 	0.49988776856981
scalar geant_cost_network.node[18].content_store 	correction_factor[18] 	0.13612850530901
scalar geant_cost_network.node[18].content_store 	xi[18] 	1
scalar geant_cost_network.node[19].core_layer 	interests[19] 	0
scalar geant_cost_network.node[19].core_layer 	data[19] 	0
scalar geant_cost_network.node[19].content_store 	p_hit[19] 	-nan
scalar geant_cost_network.node[19].content_store 	hits[19] 	0
scalar geant_cost_network.node[19].content_store 	misses[19] 	0
scalar geant_cost_network.node[19].content_store 	decision_yes[19] 	0
scalar geant_cost_network.node[19].content_store 	decision_no[19] 	0
scalar geant_cost_network.node[19].content_store 	decision_ratio[19] 	0
scalar geant_cost_network.node[19].content_store 	correction_factor[19] 	0.13612850530901
scalar geant_cost_network.node[19].content_store 	xi[19] 	1
scalar geant_cost_network.node[20].core_layer 	interests[20] 	3310312
scalar geant_cost_network.node[20].core_layer 	data[20] 	2518823
scalar geant_cost_network.node[20].content_store 	p_hit[20] 	0.23789570288239
scalar geant_cost_network.node[20].content_store 	hits[20] 	787509
scalar geant_cost_network.node[20].content_store 	misses[20] 	2522803
scalar geant_cost_network.node[20].content_store 	decision_yes[20] 	1260027
scalar geant_cost_network.node[20].content_store 	decision_no[20] 	1258796
scalar geant_cost_network.node[20].content_store 	decision_ratio[20] 	0.50024436016346
scalar geant_cost_network.node[20].content_store 	correction_factor[20] 	0.13612850530901
scalar geant_cost_network.node[20].content_store 	xi[20] 	1
scalar geant_cost_network.node[21].core_layer 	interests[21] 	3073774
scalar geant_cost_network.node[21].core_layer 	data[21] 	3031030
scalar geant_cost_network.node[21].content_store 	p_hit[21] 	0.013906032128582
scalar geant_cost_network.node[21].content_store 	hits[21] 	42744
scalar geant_cost_network.node[21].content_store 	misses[21] 	3031030
scalar geant_cost_network.node[21].content_store 	decision_yes[21] 	1515602
scalar geant_cost_network.node[21].content_store 	decision_no[21] 	1515428
scalar geant_cost_network.node[21].content_store 	decision_ratio[21] 	0.50002870311412
scalar geant_cost_network.node[21].content_store 	correction_factor[21] 	0.13612850530901
scalar geant_cost_network.node[21].content_store 	xi[21] 	1
scalar geant_cost_network.node[22].core_layer 	interests[22] 	3039573
scalar geant_cost_network.node[22].core_layer 	repo_load[22] 	3039573
scalar geant_cost_network.node[22].core_layer 	data[22] 	0
scalar geant_cost_network.node[22].content_store 	p_hit[22] 	0
scalar geant_cost_network.node[22].content_store 	hits[22] 	0
scalar geant_cost_network.node[22].content_store 	misses[22] 	3039573
scalar geant_cost_network.node[22].content_store 	decision_yes[22] 	0
scalar geant_cost_network.node[22].content_store 	decision_no[22] 	3039573
scalar geant_cost_network.node[22].content_store 	decision_ratio[22] 	0
scalar geant_cost_network.node[23].core_layer 	interests[23] 	3008738
scalar geant_cost_network.node[23].core_layer 	repo_load[23] 	3008738
scalar geant_cost_network.node[23].core_layer 	data[23] 	0
scalar geant_cost_network.node[23].content_store 	p_hit[23] 	0
scalar geant_cost_network.node[23].content_store 	hits[23] 	0
scalar geant_cost_network.node[23].content_store 	misses[23] 	3008738
scalar geant_cost_network.node[23].content_store 	decision_yes[23] 	0
scalar geant_cost_network.node[23].content_store 	decision_no[23] 	3008738
scalar geant_cost_network.node[23].content_store 	decision_ratio[23] 	0
scalar geant_cost_network.node[24].core_layer 	interests[24] 	3031030
scalar geant_cost_network.node[24].core_layer 	repo_load[24] 	3031030
scalar geant_cost_network.node[24].core_layer 	data[24] 	0
scalar geant_cost_network.node[24].content_store 	p_hit[24] 	0
scalar geant_cost_network.node[24].content_store 	hits[24] 	0
scalar geant_cost_network.node[24].content_store 	misses[24] 	3031030
scalar geant_cost_network.node[24].content_store 	decision_yes[24] 	0
scalar geant_cost_network.node[24].content_store 	decision_no[24] 	3031030
scalar geant_cost_network.node[24].content_store 	decision_ratio[24] 	0
scalar geant_cost_network.client[5] 	hdistance[5] 	2.73818877358
scalar geant_cost_network.client[5] 	downloads[5] 	3290577
scalar geant_cost_network.client[5] 	avg_time[5] 	0.009575723551
scalar geant_cost_network.client[5] 	interests_sent[5] 	3296158
scalar geant_cost_network.client[9] 	hdistance[9] 	2.7993559970382
scalar geant_cost_network.client[9] 	downloads[9] 	3292842
scalar geant_cost_network.client[9] 	avg_time[9] 	0.005809775384
scalar geant_cost_network.client[9] 	interests_sent[9] 	3297171
scalar geant_cost_network.client[10] 	hdistance[10] 	3.4802248692122
scalar geant_cost_network.client[10] 	downloads[10] 	3290446
scalar geant_cost_network.client[10] 	avg_time[10] 	0.007181216179
scalar geant_cost_network.client[10] 	interests_sent[10] 	3294743
scalar geant_cost_network.client[12] 	hdistance[12] 	2.8434290676694
scalar geant_cost_network.client[12] 	downloads[12] 	3286421
scalar geant_cost_network.client[12] 	avg_time[12] 	0.007473201931
scalar geant_cost_network.client[12] 	interests_sent[12] 	3295985
scalar geant_cost_network.client[20] 	hdistance[20] 	3.0839135961808
scalar geant_cost_network.client[20] 	downloads[20] 	3294484
scalar geant_cost_network.client[20] 	avg_time[20] 	0.007007428992
scalar geant_cost_network.client[20] 	interests_sent[20] 	3298464
