version 2
run General-108-20140502-01:18:52-8982
attr D costprob0.1
attr F nrr
attr R lru
attr a 0.8
attr configname General
attr csize 1e3
attr ctlg 1e5
attr datetime 20140502-01:18:52
attr experiment General
attr inifile omnetpp.ini
attr iterationvars "$net=three_caches_scenario_3_links, $rep=1, $priceratiovalue=1, $weights=0_0.5_0.5, $a=0.8, $ctlg=1e5, $F=nrr, $ttl=1000, $D=costprob0.1, $xi=1, $R=lru, $csize=1e3"
attr iterationvars2 "$net=three_caches_scenario_3_links, $rep=1, $priceratiovalue=1, $weights=0_0.5_0.5, $a=0.8, $ctlg=1e5, $F=nrr, $ttl=1000, $D=costprob0.1, $xi=1, $R=lru, $csize=1e3, $repetition=0"
attr measurement "$net=three_caches_scenario_3_links, $rep=1, $priceratiovalue=1, $weights=0_0.5_0.5, $a=0.8, $ctlg=1e5, $F=nrr, $ttl=1000, $D=costprob0.1, $xi=1, $R=lru, $csize=1e3"
attr net three_caches_scenario_3_links
attr network networks.${net=three_caches_scenario_3_links}_network
attr priceratiovalue 1
attr processid 8982
attr rep 1
attr repetition 0
attr replication #0
attr resultdir results
attr runnumber 108
attr seedset 1
attr ttl 1000
attr weights 0_0.5_0.5
attr xi 1

scalar . 	a 	0.8
scalar . 	csize 	1e3
scalar . 	ctlg 	1e5
scalar . 	priceratiovalue 	1
scalar . 	rep 	1
scalar . 	ttl 	1000
scalar . 	xi 	1
scalar three_caches_scenario_3_links_network.content_distribution 	repo-0 	4
scalar three_caches_scenario_3_links_network.content_distribution 	repo-1 	5
scalar three_caches_scenario_3_links_network.content_distribution 	repo-2 	6
scalar three_caches_scenario_3_links_network.content_distribution 	client-0 	0
scalar three_caches_scenario_3_links_network.content_distribution 	repo-0_card 	0
scalar three_caches_scenario_3_links_network.content_distribution 	repo-1_card 	50024
scalar three_caches_scenario_3_links_network.content_distribution 	repo-2_card 	49976
scalar three_caches_scenario_3_links_network.statistics 	p_hit 	0.088168394361996
scalar three_caches_scenario_3_links_network.statistics 	interests 	68960.571428571
scalar three_caches_scenario_3_links_network.statistics 	data 	43297.571428571
scalar three_caches_scenario_3_links_network.statistics 	hdistance 	2.4502368612956
scalar three_caches_scenario_3_links_network.statistics 	avg_time 	0
scalar three_caches_scenario_3_links_network.statistics 	downloads 	179641
scalar three_caches_scenario_3_links_network.statistics 	total_cost 	137080
scalar three_caches_scenario_3_links_network.statistics 	total_replicas 	100000
scalar three_caches_scenario_3_links_network.statistics 	interests_sent 	179641
scalar three_caches_scenario_3_links_network.node[0].core_layer 	interests[0] 	179641
scalar three_caches_scenario_3_links_network.node[0].core_layer 	data[0] 	166003
scalar three_caches_scenario_3_links_network.node[0].core_layer 	repo_int[0] 	137080
scalar three_caches_scenario_3_links_network.node[0].content_store 	p_hit[0] 	0.075918081061673
scalar three_caches_scenario_3_links_network.node[0].content_store 	hits[0] 	13638
scalar three_caches_scenario_3_links_network.node[0].content_store 	misses[0] 	166003
scalar three_caches_scenario_3_links_network.node[0].content_store 	decision_yes[0] 	13882
scalar three_caches_scenario_3_links_network.node[0].content_store 	decision_no[0] 	152121
scalar three_caches_scenario_3_links_network.node[1].core_layer 	interests[1] 	0
scalar three_caches_scenario_3_links_network.node[1].core_layer 	data[1] 	0
scalar three_caches_scenario_3_links_network.node[1].content_store 	p_hit[1] 	-nan
scalar three_caches_scenario_3_links_network.node[1].content_store 	hits[1] 	0
scalar three_caches_scenario_3_links_network.node[1].content_store 	misses[1] 	0
scalar three_caches_scenario_3_links_network.node[1].content_store 	decision_yes[1] 	0
scalar three_caches_scenario_3_links_network.node[1].content_store 	decision_no[1] 	0
scalar three_caches_scenario_3_links_network.node[2].core_layer 	interests[2] 	83226
scalar three_caches_scenario_3_links_network.node[2].core_layer 	data[2] 	68803
scalar three_caches_scenario_3_links_network.node[2].content_store 	p_hit[2] 	0.17329920938168
scalar three_caches_scenario_3_links_network.node[2].content_store 	hits[2] 	14423
scalar three_caches_scenario_3_links_network.node[2].content_store 	misses[2] 	68803
scalar three_caches_scenario_3_links_network.node[2].content_store 	decision_yes[2] 	6895
scalar three_caches_scenario_3_links_network.node[2].content_store 	decision_no[2] 	61908
scalar three_caches_scenario_3_links_network.node[3].core_layer 	interests[3] 	82777
scalar three_caches_scenario_3_links_network.node[3].core_layer 	data[3] 	68277
scalar three_caches_scenario_3_links_network.node[3].content_store 	p_hit[3] 	0.17516943112217
scalar three_caches_scenario_3_links_network.node[3].content_store 	hits[3] 	14500
scalar three_caches_scenario_3_links_network.node[3].content_store 	misses[3] 	68277
scalar three_caches_scenario_3_links_network.node[3].content_store 	decision_yes[3] 	6906
scalar three_caches_scenario_3_links_network.node[3].content_store 	decision_no[3] 	61371
scalar three_caches_scenario_3_links_network.node[4].core_layer 	interests[4] 	0
scalar three_caches_scenario_3_links_network.node[4].core_layer 	data[4] 	0
scalar three_caches_scenario_3_links_network.node[4].content_store 	p_hit[4] 	-nan
scalar three_caches_scenario_3_links_network.node[4].content_store 	hits[4] 	0
scalar three_caches_scenario_3_links_network.node[4].content_store 	misses[4] 	0
scalar three_caches_scenario_3_links_network.node[4].content_store 	decision_yes[4] 	0
scalar three_caches_scenario_3_links_network.node[4].content_store 	decision_no[4] 	0
scalar three_caches_scenario_3_links_network.node[5].core_layer 	interests[5] 	68803
scalar three_caches_scenario_3_links_network.node[5].core_layer 	repo_load[5] 	68803
scalar three_caches_scenario_3_links_network.node[5].core_layer 	data[5] 	0
scalar three_caches_scenario_3_links_network.node[5].content_store 	p_hit[5] 	0
scalar three_caches_scenario_3_links_network.node[5].content_store 	hits[5] 	0
scalar three_caches_scenario_3_links_network.node[5].content_store 	misses[5] 	68803
scalar three_caches_scenario_3_links_network.node[5].content_store 	decision_yes[5] 	0
scalar three_caches_scenario_3_links_network.node[5].content_store 	decision_no[5] 	68803
scalar three_caches_scenario_3_links_network.node[6].core_layer 	interests[6] 	68277
scalar three_caches_scenario_3_links_network.node[6].core_layer 	repo_load[6] 	68277
scalar three_caches_scenario_3_links_network.node[6].core_layer 	data[6] 	0
scalar three_caches_scenario_3_links_network.node[6].content_store 	p_hit[6] 	0
scalar three_caches_scenario_3_links_network.node[6].content_store 	hits[6] 	0
scalar three_caches_scenario_3_links_network.node[6].content_store 	misses[6] 	68277
scalar three_caches_scenario_3_links_network.node[6].content_store 	decision_yes[6] 	0
scalar three_caches_scenario_3_links_network.node[6].content_store 	decision_no[6] 	68277
scalar three_caches_scenario_3_links_network.client[0] 	hdistance[0] 	2.4502368612956
scalar three_caches_scenario_3_links_network.client[0] 	downloads[0] 	179641
scalar three_caches_scenario_3_links_network.client[0] 	avg_time[0] 	0
scalar three_caches_scenario_3_links_network.client[0] 	interests_sent[0] 	179641
