version 2
run General-713-20140502-02:27:30-9610
attr D fix0.01
attr F nrr
attr R lru
attr a 1.2
attr configname General
attr csize 1e3
attr ctlg 1e5
attr datetime 20140502-02:27:30
attr experiment General
attr inifile omnetpp.ini
attr iterationvars "$net=three_caches_scenario_3_links, $rep=2, $priceratiovalue=1, $weights=0_0.5_0.5, $a=1.2, $ctlg=1e5, $F=nrr, $ttl=1000, $D=fix0.01, $xi=1, $R=lru, $csize=1e3"
attr iterationvars2 "$net=three_caches_scenario_3_links, $rep=2, $priceratiovalue=1, $weights=0_0.5_0.5, $a=1.2, $ctlg=1e5, $F=nrr, $ttl=1000, $D=fix0.01, $xi=1, $R=lru, $csize=1e3, $repetition=0"
attr measurement "$net=three_caches_scenario_3_links, $rep=2, $priceratiovalue=1, $weights=0_0.5_0.5, $a=1.2, $ctlg=1e5, $F=nrr, $ttl=1000, $D=fix0.01, $xi=1, $R=lru, $csize=1e3"
attr net three_caches_scenario_3_links
attr network networks.${net=three_caches_scenario_3_links}_network
attr priceratiovalue 1
attr processid 9610
attr rep 2
attr repetition 0
attr replication #0
attr resultdir results
attr runnumber 713
attr seedset 2
attr ttl 1000
attr weights 0_0.5_0.5
attr xi 1

scalar . 	a 	1.2
scalar . 	csize 	1e3
scalar . 	ctlg 	1e5
scalar . 	priceratiovalue 	1
scalar . 	rep 	2
scalar . 	ttl 	1000
scalar . 	xi 	1
scalar three_caches_scenario_3_links_network.content_distribution 	repo-0 	4
scalar three_caches_scenario_3_links_network.content_distribution 	repo-1 	5
scalar three_caches_scenario_3_links_network.content_distribution 	repo-2 	6
scalar three_caches_scenario_3_links_network.content_distribution 	client-0 	0
scalar three_caches_scenario_3_links_network.content_distribution 	repo-0_card 	0
scalar three_caches_scenario_3_links_network.content_distribution 	repo-1_card 	50028
scalar three_caches_scenario_3_links_network.content_distribution 	repo-2_card 	49972
scalar three_caches_scenario_3_links_network.statistics 	p_hit 	0.57141401154039
scalar three_caches_scenario_3_links_network.statistics 	interests 	36443.428571429
scalar three_caches_scenario_3_links_network.statistics 	data 	10745
scalar three_caches_scenario_3_links_network.statistics 	hdistance 	0.60778591242376
scalar three_caches_scenario_3_links_network.statistics 	avg_time 	0
scalar three_caches_scenario_3_links_network.statistics 	downloads 	179889
scalar three_caches_scenario_3_links_network.statistics 	total_cost 	34119
scalar three_caches_scenario_3_links_network.statistics 	total_replicas 	100000
scalar three_caches_scenario_3_links_network.statistics 	interests_sent 	179889
scalar three_caches_scenario_3_links_network.node[0].core_layer 	interests[0] 	179889
scalar three_caches_scenario_3_links_network.node[0].core_layer 	data[0] 	41096
scalar three_caches_scenario_3_links_network.node[0].core_layer 	repo_int[0] 	34119
scalar three_caches_scenario_3_links_network.node[0].content_store 	p_hit[0] 	0.77154801016182
scalar three_caches_scenario_3_links_network.node[0].content_store 	hits[0] 	138793
scalar three_caches_scenario_3_links_network.node[0].content_store 	misses[0] 	41096
scalar three_caches_scenario_3_links_network.node[0].content_store 	decision_yes[0] 	393
scalar three_caches_scenario_3_links_network.node[0].content_store 	decision_no[0] 	40703
scalar three_caches_scenario_3_links_network.node[1].core_layer 	interests[1] 	0
scalar three_caches_scenario_3_links_network.node[1].core_layer 	data[1] 	0
scalar three_caches_scenario_3_links_network.node[1].content_store 	p_hit[1] 	-nan
scalar three_caches_scenario_3_links_network.node[1].content_store 	hits[1] 	0
scalar three_caches_scenario_3_links_network.node[1].content_store 	misses[1] 	0
scalar three_caches_scenario_3_links_network.node[1].content_store 	decision_yes[1] 	0
scalar three_caches_scenario_3_links_network.node[1].content_store 	decision_no[1] 	0
scalar three_caches_scenario_3_links_network.node[2].core_layer 	interests[2] 	20252
scalar three_caches_scenario_3_links_network.node[2].core_layer 	data[2] 	17031
scalar three_caches_scenario_3_links_network.node[2].content_store 	p_hit[2] 	0.15904602014616
scalar three_caches_scenario_3_links_network.node[2].content_store 	hits[2] 	3221
scalar three_caches_scenario_3_links_network.node[2].content_store 	misses[2] 	17031
scalar three_caches_scenario_3_links_network.node[2].content_store 	decision_yes[2] 	203
scalar three_caches_scenario_3_links_network.node[2].content_store 	decision_no[2] 	16828
scalar three_caches_scenario_3_links_network.node[3].core_layer 	interests[3] 	20844
scalar three_caches_scenario_3_links_network.node[3].core_layer 	data[3] 	17088
scalar three_caches_scenario_3_links_network.node[3].content_store 	p_hit[3] 	0.18019573978123
scalar three_caches_scenario_3_links_network.node[3].content_store 	hits[3] 	3756
scalar three_caches_scenario_3_links_network.node[3].content_store 	misses[3] 	17088
scalar three_caches_scenario_3_links_network.node[3].content_store 	decision_yes[3] 	203
scalar three_caches_scenario_3_links_network.node[3].content_store 	decision_no[3] 	16885
scalar three_caches_scenario_3_links_network.node[4].core_layer 	interests[4] 	0
scalar three_caches_scenario_3_links_network.node[4].core_layer 	data[4] 	0
scalar three_caches_scenario_3_links_network.node[4].content_store 	p_hit[4] 	-nan
scalar three_caches_scenario_3_links_network.node[4].content_store 	hits[4] 	0
scalar three_caches_scenario_3_links_network.node[4].content_store 	misses[4] 	0
scalar three_caches_scenario_3_links_network.node[4].content_store 	decision_yes[4] 	0
scalar three_caches_scenario_3_links_network.node[4].content_store 	decision_no[4] 	0
scalar three_caches_scenario_3_links_network.node[5].core_layer 	interests[5] 	17031
scalar three_caches_scenario_3_links_network.node[5].core_layer 	repo_load[5] 	17031
scalar three_caches_scenario_3_links_network.node[5].core_layer 	data[5] 	0
scalar three_caches_scenario_3_links_network.node[5].content_store 	p_hit[5] 	0
scalar three_caches_scenario_3_links_network.node[5].content_store 	hits[5] 	0
scalar three_caches_scenario_3_links_network.node[5].content_store 	misses[5] 	17031
scalar three_caches_scenario_3_links_network.node[5].content_store 	decision_yes[5] 	0
scalar three_caches_scenario_3_links_network.node[5].content_store 	decision_no[5] 	17031
scalar three_caches_scenario_3_links_network.node[6].core_layer 	interests[6] 	17088
scalar three_caches_scenario_3_links_network.node[6].core_layer 	repo_load[6] 	17088
scalar three_caches_scenario_3_links_network.node[6].core_layer 	data[6] 	0
scalar three_caches_scenario_3_links_network.node[6].content_store 	p_hit[6] 	0
scalar three_caches_scenario_3_links_network.node[6].content_store 	hits[6] 	0
scalar three_caches_scenario_3_links_network.node[6].content_store 	misses[6] 	17088
scalar three_caches_scenario_3_links_network.node[6].content_store 	decision_yes[6] 	0
scalar three_caches_scenario_3_links_network.node[6].content_store 	decision_no[6] 	17088
scalar three_caches_scenario_3_links_network.client[0] 	hdistance[0] 	0.60778591242376
scalar three_caches_scenario_3_links_network.client[0] 	downloads[0] 	179889
scalar three_caches_scenario_3_links_network.client[0] 	avg_time[0] 	0
scalar three_caches_scenario_3_links_network.client[0] 	interests_sent[0] 	179889
