version 2
run General-191-20140421-20:05:39-14847
attr D costprob0.01
attr F nrr
attr R lru
attr a 0.8
attr configname General
attr csize 10
attr ctlg 10^3
attr datetime 20140421-20:05:39
attr experiment General
attr inifile omnetpp.ini
attr iterationvars "$net=simple_scenario, $rep=9, $priceratiovalue=2, $a=0.8, $ctlg=10^3, $F=nrr, $ttl=1000, $D=costprob0.01, $R=lru, $csize=10"
attr iterationvars2 "$net=simple_scenario, $rep=9, $priceratiovalue=2, $a=0.8, $ctlg=10^3, $F=nrr, $ttl=1000, $D=costprob0.01, $R=lru, $csize=10, $repetition=0"
attr measurement "$net=simple_scenario, $rep=9, $priceratiovalue=2, $a=0.8, $ctlg=10^3, $F=nrr, $ttl=1000, $D=costprob0.01, $R=lru, $csize=10"
attr net simple_scenario
attr network networks.${net=simple_scenario}_network
attr priceratiovalue 2
attr processid 14847
attr rep 9
attr repetition 0
attr replication #0
attr resultdir results
attr runnumber 191
attr seedset 9
attr ttl 1000

scalar . 	a 	0.8
scalar . 	csize 	10
scalar . 	priceratiovalue 	2
scalar . 	rep 	9
scalar . 	ttl 	1000
scalar simple_scenario_network.content_distribution 	repo-0 	3
scalar simple_scenario_network.content_distribution 	repo-1 	4
scalar simple_scenario_network.content_distribution 	client-0 	0
scalar simple_scenario_network.content_distribution 	repo-0_card 	514
scalar simple_scenario_network.content_distribution 	repo-1_card 	486
scalar simple_scenario_network.statistics 	p_hit 	0.11376794700967
scalar simple_scenario_network.statistics 	interests 	93511.4
scalar simple_scenario_network.statistics 	data 	57594
scalar simple_scenario_network.statistics 	hdistance 	2.3073162311303
scalar simple_scenario_network.statistics 	avg_time 	0.001998071761
scalar simple_scenario_network.statistics 	downloads 	179587
scalar simple_scenario_network.statistics 	total_cost 	61215
scalar simple_scenario_network.node[0].core_layer 	interests[0] 	179587
scalar simple_scenario_network.node[0].core_layer 	data[0] 	161576
scalar simple_scenario_network.node[0].core_layer 	repo_int[0] 	126394
scalar simple_scenario_network.node[0].content_store 	p_hit[0] 	0.10029122375228
scalar simple_scenario_network.node[0].content_store 	hits[0] 	18011
scalar simple_scenario_network.node[0].content_store 	misses[0] 	161576
scalar simple_scenario_network.node[1].core_layer 	interests[1] 	93802
scalar simple_scenario_network.node[1].core_layer 	data[1] 	69142
scalar simple_scenario_network.node[1].content_store 	p_hit[1] 	0.26289418136074
scalar simple_scenario_network.node[1].content_store 	hits[1] 	24660
scalar simple_scenario_network.node[1].content_store 	misses[1] 	69142
scalar simple_scenario_network.node[2].core_layer 	interests[2] 	67774
scalar simple_scenario_network.node[2].core_layer 	data[2] 	57252
scalar simple_scenario_network.node[2].content_store 	p_hit[2] 	0.15525127630065
scalar simple_scenario_network.node[2].content_store 	hits[2] 	10522
scalar simple_scenario_network.node[2].content_store 	misses[2] 	57252
scalar simple_scenario_network.node[3].core_layer 	interests[3] 	69142
scalar simple_scenario_network.node[3].core_layer 	repo_load[3] 	69142
scalar simple_scenario_network.node[3].core_layer 	data[3] 	0
scalar simple_scenario_network.node[3].content_store 	p_hit[3] 	0
scalar simple_scenario_network.node[3].content_store 	hits[3] 	0
scalar simple_scenario_network.node[3].content_store 	misses[3] 	69142
scalar simple_scenario_network.node[4].core_layer 	interests[4] 	57252
scalar simple_scenario_network.node[4].core_layer 	repo_load[4] 	57252
scalar simple_scenario_network.node[4].core_layer 	data[4] 	0
scalar simple_scenario_network.node[4].content_store 	p_hit[4] 	0
scalar simple_scenario_network.node[4].content_store 	hits[4] 	0
scalar simple_scenario_network.node[4].content_store 	misses[4] 	57252
scalar simple_scenario_network.client[0] 	hdistance[0] 	2.3073162311303
scalar simple_scenario_network.client[0] 	downloads[0] 	179587
scalar simple_scenario_network.client[0] 	avg_time[0] 	0.001998071761
