version 2
run General-1691-20140421-20:40:19-16462
attr D costprob0.01
attr F nrr
attr R lru
attr a 0.8
attr configname General
attr csize 10
attr ctlg 10^3
attr datetime 20140421-20:40:19
attr experiment General
attr inifile omnetpp.ini
attr iterationvars "$net=simple_scenario, $rep=34, $priceratiovalue=2, $a=0.8, $ctlg=10^3, $F=nrr, $ttl=1000, $D=costprob0.01, $R=lru, $csize=10"
attr iterationvars2 "$net=simple_scenario, $rep=34, $priceratiovalue=2, $a=0.8, $ctlg=10^3, $F=nrr, $ttl=1000, $D=costprob0.01, $R=lru, $csize=10, $repetition=0"
attr measurement "$net=simple_scenario, $rep=34, $priceratiovalue=2, $a=0.8, $ctlg=10^3, $F=nrr, $ttl=1000, $D=costprob0.01, $R=lru, $csize=10"
attr net simple_scenario
attr network networks.${net=simple_scenario}_network
attr priceratiovalue 2
attr processid 16462
attr rep 34
attr repetition 0
attr replication #0
attr resultdir results
attr runnumber 1691
attr seedset 34
attr ttl 1000

scalar . 	a 	0.8
scalar . 	csize 	10
scalar . 	priceratiovalue 	2
scalar . 	rep 	34
scalar . 	ttl 	1000
scalar simple_scenario_network.content_distribution 	repo-0 	3
scalar simple_scenario_network.content_distribution 	repo-1 	4
scalar simple_scenario_network.content_distribution 	client-0 	0
scalar simple_scenario_network.content_distribution 	repo-0_card 	538
scalar simple_scenario_network.content_distribution 	repo-1_card 	462
scalar simple_scenario_network.statistics 	p_hit 	0.11508518367094
scalar simple_scenario_network.statistics 	interests 	93433.4
scalar simple_scenario_network.statistics 	data 	57467.2
scalar simple_scenario_network.statistics 	hdistance 	2.2988416902537
scalar simple_scenario_network.statistics 	avg_time 	0.001998078824
scalar simple_scenario_network.statistics 	downloads 	179831
scalar simple_scenario_network.statistics 	total_cost 	61586
scalar simple_scenario_network.node[0].core_layer 	interests[0] 	179831
scalar simple_scenario_network.node[0].core_layer 	data[0] 	161269
scalar simple_scenario_network.node[0].core_layer 	repo_int[0] 	126067
scalar simple_scenario_network.node[0].content_store 	p_hit[0] 	0.1032191335198
scalar simple_scenario_network.node[0].content_store 	hits[0] 	18562
scalar simple_scenario_network.node[0].content_store 	misses[0] 	161269
scalar simple_scenario_network.node[1].core_layer 	interests[1] 	79090
scalar simple_scenario_network.node[1].core_layer 	data[1] 	67375
scalar simple_scenario_network.node[1].content_store 	p_hit[1] 	0.1481223922114
scalar simple_scenario_network.node[1].content_store 	hits[1] 	11715
scalar simple_scenario_network.node[1].content_store 	misses[1] 	67375
scalar simple_scenario_network.node[2].core_layer 	interests[2] 	82179
scalar simple_scenario_network.node[2].core_layer 	data[2] 	58692
scalar simple_scenario_network.node[2].content_store 	p_hit[2] 	0.28580294235754
scalar simple_scenario_network.node[2].content_store 	hits[2] 	23487
scalar simple_scenario_network.node[2].content_store 	misses[2] 	58692
scalar simple_scenario_network.node[3].core_layer 	interests[3] 	67375
scalar simple_scenario_network.node[3].core_layer 	repo_load[3] 	67375
scalar simple_scenario_network.node[3].core_layer 	data[3] 	0
scalar simple_scenario_network.node[3].content_store 	p_hit[3] 	0
scalar simple_scenario_network.node[3].content_store 	hits[3] 	0
scalar simple_scenario_network.node[3].content_store 	misses[3] 	67375
scalar simple_scenario_network.node[4].core_layer 	interests[4] 	58692
scalar simple_scenario_network.node[4].core_layer 	repo_load[4] 	58692
scalar simple_scenario_network.node[4].core_layer 	data[4] 	0
scalar simple_scenario_network.node[4].content_store 	p_hit[4] 	0
scalar simple_scenario_network.node[4].content_store 	hits[4] 	0
scalar simple_scenario_network.node[4].content_store 	misses[4] 	58692
scalar simple_scenario_network.client[0] 	hdistance[0] 	2.2988416902537
scalar simple_scenario_network.client[0] 	downloads[0] 	179831
scalar simple_scenario_network.client[0] 	avg_time[0] 	0.001998078824
