version 2
run General-1467-20140425-16:24:23-14001
attr D costprob0.2
attr F nrr
attr R lru
attr a 0
attr configname General
attr csize 9
attr ctlg 10^3
attr datetime 20140425-16:24:23
attr experiment General
attr inifile omnetpp.ini
attr iterationvars "$net=one_cache_scenario, $rep=13, $priceratiovalue=3, $a=0, $ctlg=10^3, $F=nrr, $ttl=1000, $D=costprob0.2, $R=lru, $csize=9"
attr iterationvars2 "$net=one_cache_scenario, $rep=13, $priceratiovalue=3, $a=0, $ctlg=10^3, $F=nrr, $ttl=1000, $D=costprob0.2, $R=lru, $csize=9, $repetition=0"
attr measurement "$net=one_cache_scenario, $rep=13, $priceratiovalue=3, $a=0, $ctlg=10^3, $F=nrr, $ttl=1000, $D=costprob0.2, $R=lru, $csize=9"
attr net one_cache_scenario
attr network networks.${net=one_cache_scenario}_network
attr priceratiovalue 3
attr processid 14001
attr rep 13
attr repetition 0
attr replication #0
attr resultdir results
attr runnumber 1467
attr seedset 13
attr ttl 1000

scalar . 	a 	0
scalar . 	csize 	9
scalar . 	priceratiovalue 	3
scalar . 	rep 	13
scalar . 	ttl 	1000
scalar one_cache_scenario_network.content_distribution 	repo-0 	3
scalar one_cache_scenario_network.content_distribution 	repo-1 	4
scalar one_cache_scenario_network.content_distribution 	client-0 	0
scalar one_cache_scenario_network.content_distribution 	repo-0_card 	508
scalar one_cache_scenario_network.content_distribution 	repo-1_card 	492
scalar one_cache_scenario_network.statistics 	p_hit 	0.0031089844793665
scalar one_cache_scenario_network.statistics 	interests 	107044.6
scalar one_cache_scenario_network.statistics 	data 	71141.2
scalar one_cache_scenario_network.statistics 	hdistance 	1.9814613657759
scalar one_cache_scenario_network.statistics 	avg_time 	0
scalar one_cache_scenario_network.statistics 	downloads 	179517
scalar one_cache_scenario_network.statistics 	total_cost 	87897
scalar one_cache_scenario_network.statistics 	interests_sent 	179517
scalar one_cache_scenario_network.node[0].core_layer 	interests[0] 	179517
scalar one_cache_scenario_network.node[0].core_layer 	data[0] 	177853
scalar one_cache_scenario_network.node[0].core_layer 	repo_int[0] 	177853
scalar one_cache_scenario_network.node[0].content_store 	p_hit[0] 	0.0092693171120284
scalar one_cache_scenario_network.node[0].content_store 	hits[0] 	1664
scalar one_cache_scenario_network.node[0].content_store 	misses[0] 	177853
scalar one_cache_scenario_network.node[0].content_store 	decision_yes[0] 	17574
scalar one_cache_scenario_network.node[0].content_store 	decision_no[0] 	160279
scalar one_cache_scenario_network.node[1].core_layer 	interests[1] 	90984
scalar one_cache_scenario_network.node[1].core_layer 	data[1] 	90984
scalar one_cache_scenario_network.node[1].content_store 	p_hit[1] 	0
scalar one_cache_scenario_network.node[1].content_store 	hits[1] 	0
scalar one_cache_scenario_network.node[1].content_store 	misses[1] 	90984
scalar one_cache_scenario_network.node[1].content_store 	decision_yes[1] 	0
scalar one_cache_scenario_network.node[1].content_store 	decision_no[1] 	90984
scalar one_cache_scenario_network.node[2].core_layer 	interests[2] 	86869
scalar one_cache_scenario_network.node[2].core_layer 	data[2] 	86869
scalar one_cache_scenario_network.node[2].content_store 	p_hit[2] 	0
scalar one_cache_scenario_network.node[2].content_store 	hits[2] 	0
scalar one_cache_scenario_network.node[2].content_store 	misses[2] 	86869
scalar one_cache_scenario_network.node[2].content_store 	decision_yes[2] 	0
scalar one_cache_scenario_network.node[2].content_store 	decision_no[2] 	86869
scalar one_cache_scenario_network.node[3].core_layer 	interests[3] 	90984
scalar one_cache_scenario_network.node[3].core_layer 	repo_load[3] 	90984
scalar one_cache_scenario_network.node[3].core_layer 	data[3] 	0
scalar one_cache_scenario_network.node[3].content_store 	p_hit[3] 	0
scalar one_cache_scenario_network.node[3].content_store 	hits[3] 	0
scalar one_cache_scenario_network.node[3].content_store 	misses[3] 	90984
scalar one_cache_scenario_network.node[3].content_store 	decision_yes[3] 	0
scalar one_cache_scenario_network.node[3].content_store 	decision_no[3] 	90984
scalar one_cache_scenario_network.node[4].core_layer 	interests[4] 	86869
scalar one_cache_scenario_network.node[4].core_layer 	repo_load[4] 	86869
scalar one_cache_scenario_network.node[4].core_layer 	data[4] 	0
scalar one_cache_scenario_network.node[4].content_store 	p_hit[4] 	0
scalar one_cache_scenario_network.node[4].content_store 	hits[4] 	0
scalar one_cache_scenario_network.node[4].content_store 	misses[4] 	86869
scalar one_cache_scenario_network.node[4].content_store 	decision_yes[4] 	0
scalar one_cache_scenario_network.node[4].content_store 	decision_no[4] 	86869
scalar one_cache_scenario_network.client[0] 	hdistance[0] 	1.9814613657759
scalar one_cache_scenario_network.client[0] 	downloads[0] 	179517
scalar one_cache_scenario_network.client[0] 	avg_time[0] 	0
scalar one_cache_scenario_network.client[0] 	interests_sent[0] 	179517
