version 2
run General-0-20140502-15:06:50-4275
attr D fix0.01
attr F nrr
attr R lru
attr a 1
attr configname General
attr csize 1e3
attr ctlg 1e6
attr datetime 20140502-15:06:50
attr experiment General
attr inifile omnetpp.ini
attr iterationvars "$net=one_cache_scenario_3_links, $rep=1, $priceratiovalue=10, $weights=0.333_0.333_0.334, $a=1, $ctlg=1e6, $F=nrr, $ttl=1000, $D=fix0.01, $xi=1, $R=lru, $csize=1e3"
attr iterationvars2 "$net=one_cache_scenario_3_links, $rep=1, $priceratiovalue=10, $weights=0.333_0.333_0.334, $a=1, $ctlg=1e6, $F=nrr, $ttl=1000, $D=fix0.01, $xi=1, $R=lru, $csize=1e3, $repetition=0"
attr measurement "$net=one_cache_scenario_3_links, $rep=1, $priceratiovalue=10, $weights=0.333_0.333_0.334, $a=1, $ctlg=1e6, $F=nrr, $ttl=1000, $D=fix0.01, $xi=1, $R=lru, $csize=1e3"
attr net one_cache_scenario_3_links
attr network networks.${net=one_cache_scenario_3_links}_network
attr priceratiovalue 10
attr processid 4275
attr rep 1
attr repetition 0
attr replication #0
attr resultdir results
attr runnumber 0
attr seedset 1
attr ttl 1000
attr weights 0.333_0.333_0.334
attr xi 1

scalar . 	a 	1
scalar . 	csize 	1e3
scalar . 	ctlg 	1e6
scalar . 	priceratiovalue 	10
scalar . 	rep 	1
scalar . 	ttl 	1000
scalar . 	xi 	1
scalar one_cache_scenario_3_links_network.content_distribution 	repo-0 	4
scalar one_cache_scenario_3_links_network.content_distribution 	repo-1 	5
scalar one_cache_scenario_3_links_network.content_distribution 	repo-2 	6
scalar one_cache_scenario_3_links_network.content_distribution 	client-0 	0
scalar one_cache_scenario_3_links_network.content_distribution 	repo-0_card 	333084
scalar one_cache_scenario_3_links_network.content_distribution 	repo-1_card 	332892
scalar one_cache_scenario_3_links_network.content_distribution 	repo-2_card 	334024
scalar one_cache_scenario_3_links_network.statistics 	p_hit 	0.20257909341274
scalar one_cache_scenario_3_links_network.statistics 	interests 	54880.857142857
scalar one_cache_scenario_3_links_network.statistics 	data 	29175.428571429
scalar one_cache_scenario_3_links_network.statistics 	hdistance 	1.1349909413242
scalar one_cache_scenario_3_links_network.statistics 	avg_time 	0
scalar one_cache_scenario_3_links_network.statistics 	downloads 	179938
scalar one_cache_scenario_3_links_network.statistics 	total_cost 	377103
scalar one_cache_scenario_3_links_network.statistics 	total_replicas 	1000000
scalar one_cache_scenario_3_links_network.statistics 	interests_sent 	179938
scalar one_cache_scenario_3_links_network.node[0].core_layer 	interests[0] 	179938
scalar one_cache_scenario_3_links_network.node[0].core_layer 	data[0] 	102114
scalar one_cache_scenario_3_links_network.node[0].core_layer 	repo_int[0] 	102114
scalar one_cache_scenario_3_links_network.node[0].content_store 	p_hit[0] 	0.43250452933788
scalar one_cache_scenario_3_links_network.node[0].content_store 	hits[0] 	77824
scalar one_cache_scenario_3_links_network.node[0].content_store 	misses[0] 	102114
scalar one_cache_scenario_3_links_network.node[0].content_store 	decision_yes[0] 	999
scalar one_cache_scenario_3_links_network.node[0].content_store 	decision_no[0] 	101115
scalar one_cache_scenario_3_links_network.node[1].core_layer 	interests[1] 	34197
scalar one_cache_scenario_3_links_network.node[1].core_layer 	data[1] 	34197
scalar one_cache_scenario_3_links_network.node[1].content_store 	p_hit[1] 	0
scalar one_cache_scenario_3_links_network.node[1].content_store 	hits[1] 	0
scalar one_cache_scenario_3_links_network.node[1].content_store 	misses[1] 	34197
scalar one_cache_scenario_3_links_network.node[1].content_store 	decision_yes[1] 	0
scalar one_cache_scenario_3_links_network.node[1].content_store 	decision_no[1] 	34197
scalar one_cache_scenario_3_links_network.node[2].core_layer 	interests[2] 	33563
scalar one_cache_scenario_3_links_network.node[2].core_layer 	data[2] 	33563
scalar one_cache_scenario_3_links_network.node[2].content_store 	p_hit[2] 	0
scalar one_cache_scenario_3_links_network.node[2].content_store 	hits[2] 	0
scalar one_cache_scenario_3_links_network.node[2].content_store 	misses[2] 	33563
scalar one_cache_scenario_3_links_network.node[2].content_store 	decision_yes[2] 	0
scalar one_cache_scenario_3_links_network.node[2].content_store 	decision_no[2] 	33563
scalar one_cache_scenario_3_links_network.node[3].core_layer 	interests[3] 	34354
scalar one_cache_scenario_3_links_network.node[3].core_layer 	data[3] 	34354
scalar one_cache_scenario_3_links_network.node[3].content_store 	p_hit[3] 	0
scalar one_cache_scenario_3_links_network.node[3].content_store 	hits[3] 	0
scalar one_cache_scenario_3_links_network.node[3].content_store 	misses[3] 	34354
scalar one_cache_scenario_3_links_network.node[3].content_store 	decision_yes[3] 	0
scalar one_cache_scenario_3_links_network.node[3].content_store 	decision_no[3] 	34354
scalar one_cache_scenario_3_links_network.node[4].core_layer 	interests[4] 	34197
scalar one_cache_scenario_3_links_network.node[4].core_layer 	repo_load[4] 	34197
scalar one_cache_scenario_3_links_network.node[4].core_layer 	data[4] 	0
scalar one_cache_scenario_3_links_network.node[4].content_store 	p_hit[4] 	0
scalar one_cache_scenario_3_links_network.node[4].content_store 	hits[4] 	0
scalar one_cache_scenario_3_links_network.node[4].content_store 	misses[4] 	34197
scalar one_cache_scenario_3_links_network.node[4].content_store 	decision_yes[4] 	0
scalar one_cache_scenario_3_links_network.node[4].content_store 	decision_no[4] 	34197
scalar one_cache_scenario_3_links_network.node[5].core_layer 	interests[5] 	33563
scalar one_cache_scenario_3_links_network.node[5].core_layer 	repo_load[5] 	33563
scalar one_cache_scenario_3_links_network.node[5].core_layer 	data[5] 	0
scalar one_cache_scenario_3_links_network.node[5].content_store 	p_hit[5] 	0
scalar one_cache_scenario_3_links_network.node[5].content_store 	hits[5] 	0
scalar one_cache_scenario_3_links_network.node[5].content_store 	misses[5] 	33563
scalar one_cache_scenario_3_links_network.node[5].content_store 	decision_yes[5] 	0
scalar one_cache_scenario_3_links_network.node[5].content_store 	decision_no[5] 	33563
scalar one_cache_scenario_3_links_network.node[6].core_layer 	interests[6] 	34354
scalar one_cache_scenario_3_links_network.node[6].core_layer 	repo_load[6] 	34354
scalar one_cache_scenario_3_links_network.node[6].core_layer 	data[6] 	0
scalar one_cache_scenario_3_links_network.node[6].content_store 	p_hit[6] 	0
scalar one_cache_scenario_3_links_network.node[6].content_store 	hits[6] 	0
scalar one_cache_scenario_3_links_network.node[6].content_store 	misses[6] 	34354
scalar one_cache_scenario_3_links_network.node[6].content_store 	decision_yes[6] 	0
scalar one_cache_scenario_3_links_network.node[6].content_store 	decision_no[6] 	34354
scalar one_cache_scenario_3_links_network.client[0] 	hdistance[0] 	1.1349909413242
scalar one_cache_scenario_3_links_network.client[0] 	downloads[0] 	179938
scalar one_cache_scenario_3_links_network.client[0] 	avg_time[0] 	0
scalar one_cache_scenario_3_links_network.client[0] 	interests_sent[0] 	179938
